<?xml version="1.0" encoding="UTF-8"?>

<!-- generated on 2022-10-31 10:23:37 by Eclipse SUMO netedit Version 1.14.1
<configuration xmlns:xsi="http://www.w3.org/2001/XMLSchema-instance" xsi:noNamespaceSchemaLocation="http://sumo.dlr.de/xsd/netconvertConfiguration.xsd">

    <output>
        <output-file value="C:\Users\difra\OneDrive\Documents\Pitt2022\CS1980\team-project\CMD-test\cmd-test-network.net.xml"/>
    </output>

    <processing>
        <offset.disable-normalization value="true"/>
    </processing>

    <junctions>
        <no-turnarounds value="true"/>
    </junctions>

</configuration>
-->

<net version="1.9" junctionCornerDetail="5" limitTurnSpeed="5.50" xmlns:xsi="http://www.w3.org/2001/XMLSchema-instance" xsi:noNamespaceSchemaLocation="http://sumo.dlr.de/xsd/net_file.xsd">

    <location netOffset="0.00,0.00" convBoundary="-100.00,0.00,100.00,200.00" origBoundary="10000000000.00,10000000000.00,-10000000000.00,-10000000000.00" projParameter="!"/>

    <edge id=":J0_0" function="internal">
        <lane id=":J0_0_0" index="0" speed="6.51" length="9.03" shape="-1.60,107.20 -1.95,104.75 -3.00,103.00 -4.75,101.95 -7.20,101.60"/>
    </edge>
    <edge id=":J0_1" function="internal">
        <lane id=":J0_1_0" index="0" speed="13.89" length="14.40" shape="-1.60,107.20 -1.60,92.80"/>
    </edge>
    <edge id=":J0_2" function="internal">
        <lane id=":J0_2_0" index="0" speed="8.00" length="4.07" shape="-1.60,107.20 -1.05,103.35 -0.96,103.20"/>
    </edge>
    <edge id=":J0_12" function="internal">
        <lane id=":J0_12_0" index="0" speed="8.00" length="10.13" shape="-0.96,103.20 0.60,100.60 3.35,98.95 7.20,98.40"/>
    </edge>
    <edge id=":J0_3" function="internal">
        <lane id=":J0_3_0" index="0" speed="6.51" length="9.03" shape="7.20,101.60 4.75,101.95 3.00,103.00 1.95,104.75 1.60,107.20"/>
    </edge>
    <edge id=":J0_4" function="internal">
        <lane id=":J0_4_0" index="0" speed="13.89" length="14.40" shape="7.20,101.60 -7.20,101.60"/>
    </edge>
    <edge id=":J0_5" function="internal">
        <lane id=":J0_5_0" index="0" speed="8.00" length="4.07" shape="7.20,101.60 3.35,101.05 3.20,100.96"/>
    </edge>
    <edge id=":J0_13" function="internal">
        <lane id=":J0_13_0" index="0" speed="8.00" length="10.13" shape="3.20,100.96 0.60,99.40 -1.05,96.65 -1.60,92.80"/>
    </edge>
    <edge id=":J0_6" function="internal">
        <lane id=":J0_6_0" index="0" speed="6.51" length="9.03" shape="1.60,92.80 1.95,95.25 3.00,97.00 4.75,98.05 7.20,98.40"/>
    </edge>
    <edge id=":J0_7" function="internal">
        <lane id=":J0_7_0" index="0" speed="13.89" length="14.40" shape="1.60,92.80 1.60,107.20"/>
    </edge>
    <edge id=":J0_8" function="internal">
        <lane id=":J0_8_0" index="0" speed="8.00" length="4.07" shape="1.60,92.80 1.05,96.65 0.96,96.80"/>
    </edge>
    <edge id=":J0_14" function="internal">
        <lane id=":J0_14_0" index="0" speed="8.00" length="10.13" shape="0.96,96.80 -0.60,99.40 -3.35,101.05 -7.20,101.60"/>
    </edge>
    <edge id=":J0_9" function="internal">
        <lane id=":J0_9_0" index="0" speed="6.51" length="9.03" shape="-7.20,98.40 -4.75,98.05 -3.00,97.00 -1.95,95.25 -1.60,92.80"/>
    </edge>
    <edge id=":J0_10" function="internal">
        <lane id=":J0_10_0" index="0" speed="13.89" length="14.40" shape="-7.20,98.40 7.20,98.40"/>
    </edge>
    <edge id=":J0_11" function="internal">
        <lane id=":J0_11_0" index="0" speed="8.00" length="4.07" shape="-7.20,98.40 -3.35,98.95 -3.20,99.04"/>
    </edge>
    <edge id=":J0_15" function="internal">
        <lane id=":J0_15_0" index="0" speed="8.00" length="10.13" shape="-3.20,99.04 -0.60,100.60 1.05,103.35 1.60,107.20"/>
    </edge>
    <edge id=":J1_0" function="internal">
        <lane id=":J1_0_0" index="0" speed="6.51" length="9.03" shape="-1.60,7.20 -1.95,4.75 -3.00,3.00 -4.75,1.95 -7.20,1.60"/>
    </edge>
    <edge id=":J1_1" function="internal">
        <lane id=":J1_1_0" index="0" speed="8.00" length="14.19" shape="-1.60,7.20 -1.05,3.35 0.60,0.60 3.35,-1.05 7.20,-1.60"/>
    </edge>
    <edge id=":J1_2" function="internal">
        <lane id=":J1_2_0" index="0" speed="6.51" length="9.03" shape="7.20,1.60 4.75,1.95 3.00,3.00 1.95,4.75 1.60,7.20"/>
    </edge>
    <edge id=":J1_3" function="internal">
        <lane id=":J1_3_0" index="0" speed="13.89" length="14.40" shape="7.20,1.60 -7.20,1.60"/>
    </edge>
    <edge id=":J1_4" function="internal">
        <lane id=":J1_4_0" index="0" speed="13.89" length="14.40" shape="-7.20,-1.60 7.20,-1.60"/>
    </edge>
    <edge id=":J1_5" function="internal">
        <lane id=":J1_5_0" index="0" speed="8.00" length="4.07" shape="-7.20,-1.60 -3.35,-1.05 -3.20,-0.96"/>
    </edge>
    <edge id=":J1_6" function="internal">
        <lane id=":J1_6_0" index="0" speed="8.00" length="10.13" shape="-3.20,-0.96 -0.60,0.60 1.05,3.35 1.60,7.20"/>
    </edge>
    <edge id=":J2_0" function="internal">
        <lane id=":J2_0_0" index="0" speed="13.89" length="14.40" shape="7.20,201.60 -7.20,201.60"/>
    </edge>
    <edge id=":J2_1" function="internal">
        <lane id=":J2_1_0" index="0" speed="8.00" length="4.07" shape="7.20,201.60 3.35,201.05 3.20,200.96"/>
    </edge>
    <edge id=":J2_6" function="internal">
        <lane id=":J2_6_0" index="0" speed="8.00" length="10.13" shape="3.20,200.96 0.60,199.40 -1.05,196.65 -1.60,192.80"/>
    </edge>
    <edge id=":J2_2" function="internal">
        <lane id=":J2_2_0" index="0" speed="6.51" length="9.03" shape="1.60,192.80 1.95,195.25 3.00,197.00 4.75,198.05 7.20,198.40"/>
    </edge>
    <edge id=":J2_3" function="internal">
        <lane id=":J2_3_0" index="0" speed="8.00" length="14.19" shape="1.60,192.80 1.05,196.65 -0.60,199.40 -3.35,201.05 -7.20,201.60"/>
    </edge>
    <edge id=":J2_4" function="internal">
        <lane id=":J2_4_0" index="0" speed="6.51" length="9.03" shape="-7.20,198.40 -4.75,198.05 -3.00,197.00 -1.95,195.25 -1.60,192.80"/>
    </edge>
    <edge id=":J2_5" function="internal">
        <lane id=":J2_5_0" index="0" speed="13.89" length="14.40" shape="-7.20,198.40 7.20,198.40"/>
    </edge>
    <edge id=":J3_0" function="internal">
        <lane id=":J3_0_0" index="0" speed="6.51" length="9.03" shape="98.40,107.20 98.05,104.75 97.00,103.00 95.25,101.95 92.80,101.60"/>
    </edge>
    <edge id=":J3_1" function="internal">
        <lane id=":J3_1_0" index="0" speed="13.89" length="14.40" shape="98.40,107.20 98.40,92.80"/>
    </edge>
    <edge id=":J3_2" function="internal">
        <lane id=":J3_2_0" index="0" speed="13.89" length="14.40" shape="101.60,92.80 101.60,107.20"/>
    </edge>
    <edge id=":J3_3" function="internal">
        <lane id=":J3_3_0" index="0" speed="8.00" length="4.07" shape="101.60,92.80 101.05,96.65 100.96,96.80"/>
    </edge>
    <edge id=":J3_6" function="internal">
        <lane id=":J3_6_0" index="0" speed="8.00" length="10.13" shape="100.96,96.80 99.40,99.40 96.65,101.05 92.80,101.60"/>
    </edge>
    <edge id=":J3_4" function="internal">
        <lane id=":J3_4_0" index="0" speed="6.51" length="9.03" shape="92.80,98.40 95.25,98.05 97.00,97.00 98.05,95.25 98.40,92.80"/>
    </edge>
    <edge id=":J3_5" function="internal">
        <lane id=":J3_5_0" index="0" speed="8.00" length="14.19" shape="92.80,98.40 96.65,98.95 99.40,100.60 101.05,103.35 101.60,107.20"/>
    </edge>
    <edge id=":J4_0" function="internal">
        <lane id=":J4_0_0" index="0" speed="6.08" length="7.74" shape="101.60,196.80 101.30,198.90 100.40,200.40 98.90,201.30 96.80,201.60"/>
    </edge>
    <edge id=":J4_1" function="internal">
        <lane id=":J4_1_0" index="0" speed="3.90" length="2.58" shape="96.80,198.40 97.50,198.30 98.00,198.00 98.30,197.50 98.40,196.80"/>
    </edge>
    <edge id=":J5_0" function="internal">
        <lane id=":J5_0_0" index="0" speed="3.90" length="2.58" shape="98.40,3.20 98.30,2.50 98.00,2.00 97.50,1.70 96.80,1.60"/>
    </edge>
    <edge id=":J5_1" function="internal">
        <lane id=":J5_1_0" index="0" speed="6.08" length="7.74" shape="96.80,-1.60 98.90,-1.30 100.40,-0.40 101.30,1.10 101.60,3.20"/>
    </edge>
    <edge id=":J6_0" function="internal">
        <lane id=":J6_0_0" index="0" speed="6.08" length="7.74" shape="-101.60,3.20 -101.30,1.10 -100.40,-0.40 -98.90,-1.30 -96.80,-1.60"/>
    </edge>
    <edge id=":J6_1" function="internal">
        <lane id=":J6_1_0" index="0" speed="3.90" length="2.58" shape="-96.80,1.60 -97.50,1.70 -98.00,2.00 -98.30,2.50 -98.40,3.20"/>
    </edge>
    <edge id=":J7_0" function="internal">
        <lane id=":J7_0_0" index="0" speed="13.89" length="14.40" shape="-101.60,107.20 -101.60,92.80"/>
    </edge>
    <edge id=":J7_1" function="internal">
        <lane id=":J7_1_0" index="0" speed="8.00" length="4.07" shape="-101.60,107.20 -101.05,103.35 -100.96,103.20"/>
    </edge>
    <edge id=":J7_6" function="internal">
        <lane id=":J7_6_0" index="0" speed="8.00" length="10.13" shape="-100.96,103.20 -99.40,100.60 -96.65,98.95 -92.80,98.40"/>
    </edge>
    <edge id=":J7_2" function="internal">
        <lane id=":J7_2_0" index="0" speed="6.51" length="9.03" shape="-92.80,101.60 -95.25,101.95 -97.00,103.00 -98.05,104.75 -98.40,107.20"/>
    </edge>
    <edge id=":J7_3" function="internal">
        <lane id=":J7_3_0" index="0" speed="8.00" length="14.19" shape="-92.80,101.60 -96.65,101.05 -99.40,99.40 -101.05,96.65 -101.60,92.80"/>
    </edge>
    <edge id=":J7_4" function="internal">
        <lane id=":J7_4_0" index="0" speed="6.51" length="9.03" shape="-98.40,92.80 -98.05,95.25 -97.00,97.00 -95.25,98.05 -92.80,98.40"/>
    </edge>
    <edge id=":J7_5" function="internal">
        <lane id=":J7_5_0" index="0" speed="13.89" length="14.40" shape="-98.40,92.80 -98.40,107.20"/>
    </edge>
    <edge id=":J8_0" function="internal">
        <lane id=":J8_0_0" index="0" speed="6.08" length="7.74" shape="-96.80,201.60 -98.90,201.30 -100.40,200.40 -101.30,198.90 -101.60,196.80"/>
    </edge>
    <edge id=":J8_1" function="internal">
        <lane id=":J8_1_0" index="0" speed="3.90" length="2.58" shape="-98.40,196.80 -98.30,197.50 -98.00,198.00 -97.50,198.30 -96.80,198.40"/>
    </edge>

    <edge id="-E0" from="J1" to="J0" priority="-1">
        <lane id="-E0_0" index="0" speed="13.89" length="85.60" shape="1.60,7.20 1.60,92.80"/>
    </edge>
    <edge id="-E1" from="J2" to="J0" priority="-1">
        <lane id="-E1_0" index="0" speed="13.89" length="85.60" shape="-1.60,192.80 -1.60,107.20"/>
    </edge>
    <edge id="-E10" from="J8" to="J7" priority="-1">
        <lane id="-E10_0" index="0" speed="13.89" length="89.60" shape="-101.60,196.80 -101.60,107.20"/>
    </edge>
    <edge id="-E11" from="J2" to="J8" priority="-1">
        <lane id="-E11_0" index="0" speed="13.89" length="89.60" shape="-7.20,201.60 -96.80,201.60"/>
    </edge>
    <edge id="-E2" from="J3" to="J0" priority="-1">
        <lane id="-E2_0" index="0" speed="13.89" length="85.60" shape="92.80,101.60 7.20,101.60"/>
    </edge>
    <edge id="-E3" from="J4" to="J3" priority="-1">
        <lane id="-E3_0" index="0" speed="13.89" length="89.60" shape="98.40,196.80 98.40,107.20"/>
    </edge>
    <edge id="-E4" from="J2" to="J4" priority="-1">
        <lane id="-E4_0" index="0" speed="13.89" length="89.60" shape="7.20,198.40 96.80,198.40"/>
    </edge>
    <edge id="-E5" from="J5" to="J3" priority="-1">
        <lane id="-E5_0" index="0" speed="13.89" length="89.60" shape="101.60,3.20 101.60,92.80"/>
    </edge>
    <edge id="-E6" from="J1" to="J5" priority="-1">
        <lane id="-E6_0" index="0" speed="13.89" length="89.60" shape="7.20,-1.60 96.80,-1.60"/>
    </edge>
    <edge id="-E7" from="J6" to="J1" priority="-1">
        <lane id="-E7_0" index="0" speed="13.89" length="89.60" shape="-96.80,-1.60 -7.20,-1.60"/>
    </edge>
    <edge id="-E8" from="J7" to="J6" priority="-1">
        <lane id="-E8_0" index="0" speed="13.89" length="89.60" shape="-101.60,92.80 -101.60,3.20"/>
    </edge>
    <edge id="-E9" from="J0" to="J7" priority="-1">
        <lane id="-E9_0" index="0" speed="13.89" length="85.60" shape="-7.20,101.60 -92.80,101.60"/>
    </edge>
    <edge id="E0" from="J0" to="J1" priority="-1">
        <lane id="E0_0" index="0" speed="13.89" length="85.60" shape="-1.60,92.80 -1.60,7.20"/>
    </edge>
    <edge id="E1" from="J0" to="J2" priority="-1">
        <lane id="E1_0" index="0" speed="13.89" length="85.60" shape="1.60,107.20 1.60,192.80"/>
    </edge>
    <edge id="E10" from="J7" to="J8" priority="-1">
        <lane id="E10_0" index="0" speed="13.89" length="89.60" shape="-98.40,107.20 -98.40,196.80"/>
    </edge>
    <edge id="E11" from="J8" to="J2" priority="-1">
        <lane id="E11_0" index="0" speed="13.89" length="89.60" shape="-96.80,198.40 -7.20,198.40"/>
    </edge>
    <edge id="E2" from="J0" to="J3" priority="-1">
        <lane id="E2_0" index="0" speed="13.89" length="85.60" shape="7.20,98.40 92.80,98.40"/>
    </edge>
    <edge id="E3" from="J3" to="J4" priority="-1">
        <lane id="E3_0" index="0" speed="13.89" length="89.60" shape="101.60,107.20 101.60,196.80"/>
    </edge>
    <edge id="E4" from="J4" to="J2" priority="-1">
        <lane id="E4_0" index="0" speed="13.89" length="89.60" shape="96.80,201.60 7.20,201.60"/>
    </edge>
    <edge id="E5" from="J3" to="J5" priority="-1">
        <lane id="E5_0" index="0" speed="13.89" length="89.60" shape="98.40,92.80 98.40,3.20"/>
    </edge>
    <edge id="E6" from="J5" to="J1" priority="-1">
        <lane id="E6_0" index="0" speed="13.89" length="89.60" shape="96.80,1.60 7.20,1.60"/>
    </edge>
    <edge id="E7" from="J1" to="J6" priority="-1">
        <lane id="E7_0" index="0" speed="13.89" length="89.60" shape="-7.20,1.60 -96.80,1.60"/>
    </edge>
    <edge id="E8" from="J6" to="J7" priority="-1">
        <lane id="E8_0" index="0" speed="13.89" length="89.60" shape="-98.40,3.20 -98.40,92.80"/>
    </edge>
    <edge id="E9" from="J7" to="J0" priority="-1">
        <lane id="E9_0" index="0" speed="13.89" length="85.60" shape="-92.80,98.40 -7.20,98.40"/>
    </edge>

    <tlLogic id="J0" type="static" programID="0" offset="0">
        <phase duration="42" state="GGgrrrGGgrrr"/>
        <phase duration="3"  state="yyyrrryyyrrr"/>
        <phase duration="42" state="rrrGGgrrrGGg"/>
        <phase duration="3"  state="rrryyyrrryyy"/>
    </tlLogic>
    <tlLogic id="J1" type="static" programID="0" offset="0">
        <phase duration="42" state="rrGGGg"/>
        <phase duration="3"  state="rryyyy"/>
        <phase duration="42" state="GGGrrr"/>
        <phase duration="3"  state="yyyrrr"/>
    </tlLogic>
    <tlLogic id="J2" type="static" programID="0" offset="0">
        <phase duration="42" state="GgrrGG"/>
        <phase duration="3"  state="yyrryy"/>
        <phase duration="42" state="rrGGGr"/>
        <phase duration="3"  state="rryyyr"/>
    </tlLogic>
    <tlLogic id="J3" type="static" programID="0" offset="0">
        <phase duration="42" state="GGGgrr"/>
        <phase duration="3"  state="yyyyrr"/>
        <phase duration="42" state="GrrrGG"/>
        <phase duration="3"  state="yrrryy"/>
    </tlLogic>
    <tlLogic id="J4" type="static" programID="0" offset="0">
        <phase duration="42" state="GG"/>
        <phase duration="3"  state="yy"/>
        <phase duration="42" state="GG"/>
        <phase duration="3"  state="yy"/>
    </tlLogic>
    <tlLogic id="J5" type="static" programID="0" offset="0">
        <phase duration="42" state="GG"/>
        <phase duration="3"  state="yy"/>
        <phase duration="42" state="GG"/>
        <phase duration="3"  state="yy"/>
    </tlLogic>
    <tlLogic id="J6" type="static" programID="0" offset="0">
        <phase duration="42" state="GG"/>
        <phase duration="3"  state="yy"/>
        <phase duration="42" state="GG"/>
        <phase duration="3"  state="yy"/>
    </tlLogic>
    <tlLogic id="J7" type="static" programID="0" offset="0">
        <phase duration="42" state="GgrrGG"/>
        <phase duration="3"  state="yyrryy"/>
        <phase duration="42" state="rrGGGr"/>
        <phase duration="3"  state="rryyyr"/>
    </tlLogic>
    <tlLogic id="J8" type="static" programID="0" offset="0">
        <phase duration="42" state="GG"/>
        <phase duration="3"  state="yy"/>
        <phase duration="42" state="GG"/>
        <phase duration="3"  state="yy"/>
    </tlLogic>

    <junction id="J0" type="traffic_light" x="0.00" y="100.00" incLanes="-E1_0 -E2_0 -E0_0 E9_0" intLanes=":J0_0_0 :J0_1_0 :J0_12_0 :J0_3_0 :J0_4_0 :J0_13_0 :J0_6_0 :J0_7_0 :J0_14_0 :J0_9_0 :J0_10_0 :J0_15_0" shape="-3.20,107.20 3.20,107.20 3.64,104.98 4.20,104.20 4.98,103.64 5.98,103.31 7.20,103.20 7.20,96.80 4.98,96.36 4.20,95.80 3.64,95.02 3.31,94.02 3.20,92.80 -3.20,92.80 -3.64,95.02 -4.20,95.80 -4.98,96.36 -5.98,96.69 -7.20,96.80 -7.20,103.20 -4.98,103.64 -4.20,104.20 -3.64,104.98 -3.31,105.98">
        <request index="0"  response="000000000000" foes="000100010000" cont="0"/>
        <request index="1"  response="100000100000" foes="111100110000" cont="0"/>
        <request index="2"  response="100011100000" foes="110111110000" cont="1"/>
        <request index="3"  response="000010000000" foes="100010000000" cont="0"/>
        <request index="4"  response="000110000111" foes="100110000111" cont="0"/>
        <request index="5"  response="111110000110" foes="111110000110" cont="1"/>
        <request index="6"  response="000000000000" foes="010000000100" cont="0"/>
        <request index="7"  response="100000100000" foes="110000111100" cont="0"/>
        <request index="8"  response="100000100111" foes="110000110111" cont="1"/>
        <request index="9"  response="000000000010" foes="000000100010" cont="0"/>
        <request index="10" response="000111000110" foes="000111100110" cont="0"/>
        <request index="11" response="000110011110" foes="000110111110" cont="1"/>
    </junction>
    <junction id="J1" type="traffic_light" x="0.00" y="0.00" incLanes="E0_0 E6_0 -E7_0" intLanes=":J1_0_0 :J1_1_0 :J1_2_0 :J1_3_0 :J1_4_0 :J1_6_0" shape="-3.20,7.20 3.20,7.20 3.64,4.98 4.20,4.20 4.98,3.64 5.98,3.31 7.20,3.20 7.20,-3.20 -7.20,-3.20 -7.20,3.20 -4.98,3.64 -4.20,4.20 -3.64,4.98 -3.31,5.98">
        <request index="0" response="001000" foes="001000" cont="0"/>
        <request index="1" response="111000" foes="111000" cont="0"/>
        <request index="2" response="000000" foes="100000" cont="0"/>
        <request index="3" response="000000" foes="100011" cont="0"/>
        <request index="4" response="000000" foes="000010" cont="0"/>
        <request index="5" response="001100" foes="001110" cont="1"/>
    </junction>
    <junction id="J2" type="traffic_light" x="0.00" y="200.00" incLanes="E4_0 E1_0 E11_0" intLanes=":J2_0_0 :J2_6_0 :J2_2_0 :J2_3_0 :J2_4_0 :J2_5_0" shape="7.20,203.20 7.20,196.80 4.98,196.36 4.20,195.80 3.64,195.02 3.31,194.02 3.20,192.80 -3.20,192.80 -3.64,195.02 -4.20,195.80 -4.98,196.36 -5.98,196.69 -7.20,196.80 -7.20,203.20">
        <request index="0" response="000000" foes="001000" cont="0"/>
        <request index="1" response="110000" foes="111000" cont="1"/>
        <request index="2" response="100000" foes="100000" cont="0"/>
        <request index="3" response="100011" foes="100011" cont="0"/>
        <request index="4" response="000000" foes="000010" cont="0"/>
        <request index="5" response="000000" foes="001110" cont="0"/>
    </junction>
    <junction id="J3" type="traffic_light" x="100.00" y="100.00" incLanes="-E3_0 -E5_0 E2_0" intLanes=":J3_0_0 :J3_1_0 :J3_2_0 :J3_6_0 :J3_4_0 :J3_5_0" shape="96.80,107.20 103.20,107.20 103.20,92.80 96.80,92.80 96.36,95.02 95.80,95.80 95.02,96.36 94.02,96.69 92.80,96.80 92.80,103.20 95.02,103.64 95.80,104.20 96.36,104.98 96.69,105.98">
        <request index="0" response="000000" foes="001000" cont="0"/>
        <request index="1" response="000000" foes="111000" cont="0"/>
        <request index="2" response="000000" foes="100000" cont="0"/>
        <request index="3" response="000011" foes="100011" cont="1"/>
        <request index="4" response="000010" foes="000010" cont="0"/>
        <request index="5" response="001110" foes="001110" cont="0"/>
    </junction>
    <junction id="J4" type="traffic_light" x="100.00" y="200.00" incLanes="E3_0 -E4_0" intLanes=":J4_0_0 :J4_1_0" shape="103.20,196.80 96.80,196.80 96.80,203.20 100.36,202.49 101.60,201.60 102.49,200.36 103.02,198.76">
        <request index="0" response="00" foes="00" cont="0"/>
        <request index="1" response="00" foes="00" cont="0"/>
    </junction>
    <junction id="J5" type="traffic_light" x="100.00" y="0.00" incLanes="E5_0 -E6_0" intLanes=":J5_0_0 :J5_1_0" shape="96.80,3.20 103.20,3.20 102.49,-0.36 101.60,-1.60 100.36,-2.49 98.76,-3.02 96.80,-3.20">
        <request index="0" response="00" foes="00" cont="0"/>
        <request index="1" response="00" foes="00" cont="0"/>
    </junction>
    <junction id="J6" type="traffic_light" x="-100.00" y="0.00" incLanes="-E8_0 E7_0" intLanes=":J6_0_0 :J6_1_0" shape="-103.20,3.20 -96.80,3.20 -96.80,-3.20 -100.36,-2.49 -101.60,-1.60 -102.49,-0.36 -103.02,1.24">
        <request index="0" response="00" foes="00" cont="0"/>
        <request index="1" response="00" foes="00" cont="0"/>
    </junction>
    <junction id="J7" type="traffic_light" x="-100.00" y="100.00" incLanes="-E10_0 -E9_0 E8_0" intLanes=":J7_0_0 :J7_6_0 :J7_2_0 :J7_3_0 :J7_4_0 :J7_5_0" shape="-103.20,107.20 -96.80,107.20 -96.36,104.98 -95.80,104.20 -95.02,103.64 -94.02,103.31 -92.80,103.20 -92.80,96.80 -95.02,96.36 -95.80,95.80 -96.36,95.02 -96.69,94.02 -96.80,92.80 -103.20,92.80">
        <request index="0" response="000000" foes="001000" cont="0"/>
        <request index="1" response="110000" foes="111000" cont="1"/>
        <request index="2" response="100000" foes="100000" cont="0"/>
        <request index="3" response="100011" foes="100011" cont="0"/>
        <request index="4" response="000000" foes="000010" cont="0"/>
        <request index="5" response="000000" foes="001110" cont="0"/>
    </junction>
    <junction id="J8" type="traffic_light" x="-100.00" y="200.00" incLanes="-E11_0 E10_0" intLanes=":J8_0_0 :J8_1_0" shape="-96.80,203.20 -96.80,196.80 -103.20,196.80 -102.49,200.36 -101.60,201.60 -100.36,202.49 -98.76,203.02">
        <request index="0" response="00" foes="00" cont="0"/>
        <request index="1" response="00" foes="00" cont="0"/>
    </junction>

    <junction id=":J0_12_0" type="internal" x="-0.96" y="103.20" incLanes=":J0_2_0 -E0_0" intLanes=":J0_4_0 :J0_5_0 :J0_6_0 :J0_7_0 :J0_10_0 :J0_11_0"/>
    <junction id=":J0_13_0" type="internal" x="3.20" y="100.96" incLanes=":J0_5_0 E9_0" intLanes=":J0_1_0 :J0_2_0 :J0_7_0 :J0_8_0 :J0_9_0 :J0_10_0"/>
    <junction id=":J0_14_0" type="internal" x="0.96" y="96.80" incLanes=":J0_8_0 -E1_0" intLanes=":J0_0_0 :J0_1_0 :J0_4_0 :J0_5_0 :J0_10_0 :J0_11_0"/>
    <junction id=":J0_15_0" type="internal" x="-3.20" y="99.04" incLanes=":J0_11_0 -E2_0" intLanes=":J0_1_0 :J0_2_0 :J0_3_0 :J0_4_0 :J0_7_0 :J0_8_0"/>
    <junction id=":J1_6_0" type="internal" x="-3.20" y="-0.96" incLanes=":J1_5_0 E6_0" intLanes=":J1_1_0 :J1_2_0 :J1_3_0"/>
    <junction id=":J2_6_0" type="internal" x="3.20" y="200.96" incLanes=":J2_1_0 E11_0" intLanes=":J2_3_0 :J2_4_0 :J2_5_0"/>
    <junction id=":J3_6_0" type="internal" x="100.96" y="96.80" incLanes=":J3_3_0 -E3_0" intLanes=":J3_0_0 :J3_1_0 :J3_5_0"/>
    <junction id=":J7_6_0" type="internal" x="-100.96" y="103.20" incLanes=":J7_1_0 E8_0" intLanes=":J7_3_0 :J7_4_0 :J7_5_0"/>

    <connection from="-E0" to="E2" fromLane="0" toLane="0" via=":J0_6_0" tl="J0" linkIndex="6" dir="r" state="O"/>
    <connection from="-E0" to="E1" fromLane="0" toLane="0" via=":J0_7_0" tl="J0" linkIndex="7" dir="s" state="O"/>
    <connection from="-E0" to="-E9" fromLane="0" toLane="0" via=":J0_8_0" tl="J0" linkIndex="8" dir="l" state="o"/>
    <connection from="-E1" to="-E9" fromLane="0" toLane="0" via=":J0_0_0" tl="J0" linkIndex="0" dir="r" state="O"/>
    <connection from="-E1" to="E0" fromLane="0" toLane="0" via=":J0_1_0" tl="J0" linkIndex="1" dir="s" state="O"/>
    <connection from="-E1" to="E2" fromLane="0" toLane="0" via=":J0_2_0" tl="J0" linkIndex="2" dir="l" state="o"/>
    <connection from="-E10" to="-E8" fromLane="0" toLane="0" via=":J7_0_0" tl="J7" linkIndex="0" dir="s" state="O"/>
    <connection from="-E10" to="E9" fromLane="0" toLane="0" via=":J7_1_0" tl="J7" linkIndex="1" dir="l" state="o"/>
    <connection from="-E11" to="-E10" fromLane="0" toLane="0" via=":J8_0_0" tl="J8" linkIndex="0" dir="l" state="O"/>
    <connection from="-E2" to="E1" fromLane="0" toLane="0" via=":J0_3_0" tl="J0" linkIndex="3" dir="r" state="o"/>
    <connection from="-E2" to="-E9" fromLane="0" toLane="0" via=":J0_4_0" tl="J0" linkIndex="4" dir="s" state="o"/>
    <connection from="-E2" to="E0" fromLane="0" toLane="0" via=":J0_5_0" tl="J0" linkIndex="5" dir="l" state="o"/>
    <connection from="-E3" to="-E2" fromLane="0" toLane="0" via=":J3_0_0" tl="J3" linkIndex="0" dir="r" state="O"/>
    <connection from="-E3" to="E5" fromLane="0" toLane="0" via=":J3_1_0" tl="J3" linkIndex="1" dir="s" state="O"/>
    <connection from="-E4" to="-E3" fromLane="0" toLane="0" via=":J4_1_0" tl="J4" linkIndex="1" dir="r" state="O"/>
    <connection from="-E5" to="E3" fromLane="0" toLane="0" via=":J3_2_0" tl="J3" linkIndex="2" dir="s" state="O"/>
    <connection from="-E5" to="-E2" fromLane="0" toLane="0" via=":J3_3_0" tl="J3" linkIndex="3" dir="l" state="o"/>
    <connection from="-E6" to="-E5" fromLane="0" toLane="0" via=":J5_1_0" tl="J5" linkIndex="1" dir="l" state="O"/>
    <connection from="-E7" to="-E6" fromLane="0" toLane="0" via=":J1_4_0" tl="J1" linkIndex="4" dir="s" state="O"/>
    <connection from="-E7" to="-E0" fromLane="0" toLane="0" via=":J1_5_0" tl="J1" linkIndex="5" dir="l" state="o"/>
    <connection from="-E8" to="-E7" fromLane="0" toLane="0" via=":J6_0_0" tl="J6" linkIndex="0" dir="l" state="O"/>
    <connection from="-E9" to="E10" fromLane="0" toLane="0" via=":J7_2_0" tl="J7" linkIndex="2" dir="r" state="o"/>
    <connection from="-E9" to="-E8" fromLane="0" toLane="0" via=":J7_3_0" tl="J7" linkIndex="3" dir="l" state="o"/>
    <connection from="E0" to="E7" fromLane="0" toLane="0" via=":J1_0_0" tl="J1" linkIndex="0" dir="r" state="o"/>
    <connection from="E0" to="-E6" fromLane="0" toLane="0" via=":J1_1_0" tl="J1" linkIndex="1" dir="l" state="o"/>
    <connection from="E1" to="-E4" fromLane="0" toLane="0" via=":J2_2_0" tl="J2" linkIndex="2" dir="r" state="o"/>
    <connection from="E1" to="-E11" fromLane="0" toLane="0" via=":J2_3_0" tl="J2" linkIndex="3" dir="l" state="o"/>
    <connection from="E10" to="E11" fromLane="0" toLane="0" via=":J8_1_0" tl="J8" linkIndex="1" dir="r" state="O"/>
    <connection from="E11" to="-E1" fromLane="0" toLane="0" via=":J2_4_0" tl="J2" linkIndex="4" dir="r" state="O"/>
    <connection from="E11" to="-E4" fromLane="0" toLane="0" via=":J2_5_0" tl="J2" linkIndex="5" dir="s" state="O"/>
    <connection from="E2" to="E5" fromLane="0" toLane="0" via=":J3_4_0" tl="J3" linkIndex="4" dir="r" state="o"/>
    <connection from="E2" to="E3" fromLane="0" toLane="0" via=":J3_5_0" tl="J3" linkIndex="5" dir="l" state="o"/>
    <connection from="E3" to="E4" fromLane="0" toLane="0" via=":J4_0_0" tl="J4" linkIndex="0" dir="l" state="O"/>
    <connection from="E4" to="-E11" fromLane="0" toLane="0" via=":J2_0_0" tl="J2" linkIndex="0" dir="s" state="O"/>
    <connection from="E4" to="-E1" fromLane="0" toLane="0" via=":J2_1_0" tl="J2" linkIndex="1" dir="l" state="o"/>
    <connection from="E5" to="E6" fromLane="0" toLane="0" via=":J5_0_0" tl="J5" linkIndex="0" dir="r" state="O"/>
    <connection from="E6" to="-E0" fromLane="0" toLane="0" via=":J1_2_0" tl="J1" linkIndex="2" dir="r" state="O"/>
    <connection from="E6" to="E7" fromLane="0" toLane="0" via=":J1_3_0" tl="J1" linkIndex="3" dir="s" state="O"/>
    <connection from="E7" to="E8" fromLane="0" toLane="0" via=":J6_1_0" tl="J6" linkIndex="1" dir="r" state="O"/>
    <connection from="E8" to="E9" fromLane="0" toLane="0" via=":J7_4_0" tl="J7" linkIndex="4" dir="r" state="O"/>
    <connection from="E8" to="E10" fromLane="0" toLane="0" via=":J7_5_0" tl="J7" linkIndex="5" dir="s" state="O"/>
    <connection from="E9" to="E0" fromLane="0" toLane="0" via=":J0_9_0" tl="J0" linkIndex="9" dir="r" state="o"/>
    <connection from="E9" to="E2" fromLane="0" toLane="0" via=":J0_10_0" tl="J0" linkIndex="10" dir="s" state="o"/>
    <connection from="E9" to="E1" fromLane="0" toLane="0" via=":J0_11_0" tl="J0" linkIndex="11" dir="l" state="o"/>

    <connection from=":J0_0" to="-E9" fromLane="0" toLane="0" dir="r" state="M"/>
    <connection from=":J0_1" to="E0" fromLane="0" toLane="0" dir="s" state="M"/>
    <connection from=":J0_2" to="E2" fromLane="0" toLane="0" via=":J0_12_0" dir="l" state="m"/>
    <connection from=":J0_12" to="E2" fromLane="0" toLane="0" dir="l" state="M"/>
    <connection from=":J0_3" to="E1" fromLane="0" toLane="0" dir="r" state="M"/>
    <connection from=":J0_4" to="-E9" fromLane="0" toLane="0" dir="s" state="M"/>
    <connection from=":J0_5" to="E0" fromLane="0" toLane="0" via=":J0_13_0" dir="l" state="m"/>
    <connection from=":J0_13" to="E0" fromLane="0" toLane="0" dir="l" state="M"/>
    <connection from=":J0_6" to="E2" fromLane="0" toLane="0" dir="r" state="M"/>
    <connection from=":J0_7" to="E1" fromLane="0" toLane="0" dir="s" state="M"/>
    <connection from=":J0_8" to="-E9" fromLane="0" toLane="0" via=":J0_14_0" dir="l" state="m"/>
    <connection from=":J0_14" to="-E9" fromLane="0" toLane="0" dir="l" state="M"/>
    <connection from=":J0_9" to="E0" fromLane="0" toLane="0" dir="r" state="M"/>
    <connection from=":J0_10" to="E2" fromLane="0" toLane="0" dir="s" state="M"/>
    <connection from=":J0_11" to="E1" fromLane="0" toLane="0" via=":J0_15_0" dir="l" state="m"/>
    <connection from=":J0_15" to="E1" fromLane="0" toLane="0" dir="l" state="M"/>