<?xml version="1.0" encoding="UTF-8"?>

<configuration xmlns:xsi="http://www.w3.org/2001/XMLSchema-instance" xsi:noNamespaceSchemaLocation="http://sumo.dlr.de/xsd/duarouterConfiguration.xsd">

	<input>
		<net-file value="10blocksX10blocks.net.xml"/>
		<route-files value = "10blocksX10blocks_routes.rou.xml"/>
	</input>

	<time>
		<begin value="0"/>
		<end value="3500"/>
	</time>

</configuration>