<?xml version="1.0" encoding="UTF-8"?>

<!-- generated on 2022-11-07 11:32:29 by Eclipse SUMO polyconvert Version 1.14.1
<configuration xmlns:xsi="http://www.w3.org/2001/XMLSchema-instance" xsi:noNamespaceSchemaLocation="http://sumo.dlr.de/xsd/polyconvertConfiguration.xsd">

    <input>
        <net-file value="osm.net.xml"/>
        <osm-files value="osm_bbox.osm.xml.gz"/>
        <osm.keep-full-type value="true"/>
        <type-file value="C:\Program%20Files%20(x86)\Eclipse\Sumo\data\typemap\osmPolyconvert.typ.xml"/>
    </input>

    <output>
        <output-file value="osm.poly.xml"/>
    </output>

    <report>
        <verbose value="true"/>
    </report>

</configuration>
-->

<additional xmlns:xsi="http://www.w3.org/2001/XMLSchema-instance" xsi:noNamespaceSchemaLocation="http://sumo.dlr.de/xsd/additional_file.xsd">
    <location netOffset="-587672.14,-4476577.16" convBoundary="0.00,-747.77,3092.00,3185.33" origBoundary="-79.966018,40.428319,-79.929640,40.463666" projParameter="+proj=utm +zone=17 +ellps=WGS84 +datum=WGS84 +units=m +no_defs"/>

    <poly id="1000417250" type="landuse.recreation_ground" color="194,194,130" fill="1" layer="-3.00" shape="1411.865888,1003.928628 1418.373357,985.943494 1371.578410,966.724959 1364.205853,986.853585 1411.865888,1003.928628"/>
    <poly id="1000417251" type="leisure.garden" color="207,245,201" fill="1" layer="-2.00" shape="1601.468345,1203.930767 1590.329692,1202.698920 1593.511344,1174.860332 1604.540316,1183.873207 1601.468345,1203.930767"/>
    <poly id="1000419332" type="amenity.food_court" color="237,199,199" fill="1" layer="-1.00" shape="2199.330923,861.086903 2199.063264,858.652403 2198.124412,849.948446 2214.795377,845.396940 2214.643345,843.929681 2232.412227,839.069439 2235.146219,849.438012 2233.427095,849.916956 2234.253679,852.424778 2230.577436,853.424217 2230.707400,853.903153 2228.432893,854.719587 2226.132811,855.546816 2223.936231,856.230965 2221.833207,856.894034 2219.287449,857.696113 2217.491068,858.251845 2216.010609,858.633741 2215.525606,856.640702 2199.330923,861.086903"/>
    <poly id="1000419332#1" type="building.yes" color="255,230,230" fill="1" layer="-1.00" shape="2199.330923,861.086903 2199.063264,858.652403 2198.124412,849.948446 2214.795377,845.396940 2214.643345,843.929681 2232.412227,839.069439 2235.146219,849.438012 2233.427095,849.916956 2234.253679,852.424778 2230.577436,853.424217 2230.707400,853.903153 2228.432893,854.719587 2226.132811,855.546816 2223.936231,856.230965 2221.833207,856.894034 2219.287449,857.696113 2217.491068,858.251845 2216.010609,858.633741 2215.525606,856.640702 2199.330923,861.086903"/>
    <poly id="1001793191" type="natural.wood" color="140,196,107" fill="1" layer="-4.00" shape="1915.456600,897.763370 1910.014319,898.208955 1905.476262,900.352827 1901.829953,905.238401 1900.440828,911.460980 1901.038003,914.010426 1886.633499,917.734886 1885.051002,899.697800 1875.348947,895.329818 1844.702545,899.670615 1841.386112,893.991283 1835.977463,896.591065 1828.594460,893.349935 1821.901491,885.598641 1814.305921,882.399392 1891.253923,859.050703 1882.901738,826.200630 1895.265301,822.929127 1893.714496,816.427152 1894.880224,816.119141 1897.485192,815.328763 1907.958927,815.465125 1912.270100,828.039479 1916.825361,840.061667 1920.795960,852.032457 1923.962861,863.827110 1924.041829,874.952023 1915.456600,897.763370"/>
    <poly id="1001793195" type="leisure.garden" color="207,245,201" fill="1" layer="-2.00" shape="1833.530546,1158.818800 1837.971678,1166.898457 1847.331538,1162.258778 1843.199956,1153.827558 1833.530546,1158.818800"/>
    <poly id="1001793197" type="amenity.shelter" color="237,199,199" fill="1" layer="-1.00" shape="1915.864469,1089.151612 1914.923578,1086.975512 1921.597734,1083.513888 1922.919850,1085.727855 1915.864469,1089.151612"/>
    <poly id="1001793197#1" type="building.yes" color="255,230,230" fill="1" layer="-1.00" shape="1915.864469,1089.151612 1914.923578,1086.975512 1921.597734,1083.513888 1922.919850,1085.727855 1915.864469,1089.151612"/>
    <poly id="1001793198" type="leisure.garden" color="207,245,201" fill="1" layer="-2.00" shape="2076.336021,1034.242954 2101.598073,1029.028142 2102.411254,1026.995163 2101.805711,1023.735084 2074.330062,1026.103518 2076.336021,1034.242954"/>
    <poly id="1001795323" type="natural.tree_row" color="140,196,107" fill="0" layer="-4.00" shape="1824.527201,1137.884288 1831.634438,1134.372253"/>
    <poly id="1001795324" type="natural.tree_row" color="140,196,107" fill="0" layer="-4.00" shape="1836.892523,1131.581941 1843.451049,1128.562938"/>
    <poly id="1001795325" type="natural.tree_row" color="140,196,107" fill="0" layer="-4.00" shape="1848.681578,1125.949934 1853.861892,1123.280824"/>
    <poly id="1001795326" type="natural.tree_row" color="140,196,107" fill="0" layer="-4.00" shape="1858.586384,1120.428640 1864.259637,1117.676615"/>
    <poly id="1001795327" type="natural.tree_row" color="140,196,107" fill="0" layer="-4.00" shape="1869.565046,1115.186640 1875.385263,1112.203244"/>
    <poly id="1001795328" type="natural.tree_row" color="140,196,107" fill="0" layer="-4.00" shape="1880.146466,1109.828888 1886.334142,1106.616757"/>
    <poly id="1001795329" type="natural.tree_row" color="140,196,107" fill="0" layer="-4.00" shape="1890.343245,1116.067898 1854.877528,1133.395573"/>
    <poly id="1001795330" type="natural.tree_row" color="140,196,107" fill="0" layer="-4.00" shape="1855.778741,1139.601132 1865.603834,1159.191093"/>
    <poly id="1001795331" type="natural.tree_row" color="140,196,107" fill="0" layer="-4.00" shape="1827.110504,1143.155193 1834.060577,1140.018742"/>
    <poly id="1001795332" type="natural.tree_row" color="140,196,107" fill="0" layer="-4.00" shape="1839.701211,1137.155293 1845.828289,1134.042321"/>
    <poly id="1001795333" type="natural.tree_row" color="140,196,107" fill="0" layer="-4.00" shape="1840.812315,1170.507179 1854.883247,1163.425922"/>
    <poly id="1001795334" type="natural.tree_row" color="140,196,107" fill="0" layer="-4.00" shape="1897.470682,1112.289723 1908.459990,1106.870278 1908.649445,1113.722335"/>
    <poly id="1001797770" type="man_made.courtyard" color="255,230,230" fill="1" layer="-1.00" shape="2087.408941,767.078274 2088.800874,764.175189 2091.567219,761.954683 2095.268030,760.322668 2098.884499,760.066265 2102.667625,760.766613 2105.388072,762.375672 2106.614240,767.641507 2105.163732,770.477276 2102.117383,772.705523 2098.631659,774.084771 2094.649054,774.458906 2091.389622,773.942466 2088.834438,771.991238 2088.280616,770.075096 2087.408941,767.078274"/>
    <poly id="1001798120" type="natural.tree_row" color="140,196,107" fill="0" layer="-4.00" shape="2181.081052,826.152688 2225.367053,814.050283"/>
    <poly id="1001941217" type="building.university" color="255,230,230" fill="1" layer="-1.00" shape="1643.790664,745.977311 1647.611445,744.946004 1649.371061,751.739056 1666.268476,747.388866 1672.487880,771.398430 1670.003246,772.057101 1674.126044,788.370349 1654.014998,793.348297 1646.471524,763.006062 1644.812185,763.452548 1643.855250,759.766457 1642.906928,756.069367 1646.617055,755.070045 1643.790664,745.977311"/>
    <poly id="1002531075" type="building.dormitory" color="255,230,230" fill="1" layer="-1.00" shape="1915.748513,1132.169580 1927.614999,1127.160321 1931.511444,1125.463961 1960.422974,1112.931875 1955.228738,1101.168444 1929.770909,1112.143216 1925.303675,1101.287749 1924.536044,1101.644923 1923.543345,1099.545915 1919.135932,1101.413794 1918.622487,1100.375188 1917.692664,1100.819237 1916.899326,1101.198309 1917.387727,1102.203310 1916.850665,1102.430023 1917.825209,1104.628730 1913.612986,1106.487846 1918.266937,1117.334438 1910.790349,1120.520023 1915.748513,1132.169580"/>
    <poly id="1002857130" type="leisure.pitch" color="207,245,201" fill="1" layer="-2.00" shape="1863.715634,931.182655 1876.760713,917.716752 1870.018632,911.241528 1856.990516,924.707645 1863.715634,931.182655"/>
    <poly id="1002857130#1" type="sport.volleyball" color="79,230,125" fill="1" layer="-2.00" shape="1863.715634,931.182655 1876.760713,917.716752 1870.018632,911.241528 1856.990516,924.707645 1863.715634,931.182655"/>
    <poly id="1002857138" type="building.university" color="255,230,230" fill="1" layer="-1.00" shape="1997.011299,683.764717 2019.770191,678.008953 2019.405958,676.550260 2022.852869,675.581276 2019.648278,663.397570 2037.519216,658.538080 2032.119937,638.379219 2032.579909,638.218201 2030.341361,629.654135 2019.183856,632.762238 2018.499624,630.400471 1981.838014,639.708913 1984.253054,650.539836 1980.547056,651.894300 1987.167015,677.796242 1995.198880,675.738648 1997.011299,683.764717"/>
    <poly id="1002857141" type="leisure.garden" color="207,245,201" fill="1" layer="-2.00" shape="1850.099396,915.088859 1853.918287,929.822139 1841.101470,932.710828 1834.625231,923.152524 1833.901779,918.392324 1835.628146,918.013292 1835.171257,917.208505 1850.099396,915.088859"/>
    <poly id="1007453778" type="building.dormitory" color="255,230,230" fill="1" layer="-1.00" shape="1701.564750,1417.445894 1701.668896,1416.536792 1702.182997,1411.835779 1703.851607,1412.022221 1704.032868,1410.336916 1706.014979,1410.549303 1706.633495,1404.916988 1727.783757,1407.245489 1728.953377,1396.657265 1725.234941,1396.246515 1725.605555,1392.909308 1726.794917,1382.088183 1722.442180,1381.525539 1719.258121,1387.504687 1710.503890,1386.911714 1703.766085,1381.524651 1703.907992,1379.583535 1705.391212,1366.168102 1745.058039,1370.505056 1739.427017,1421.594762 1701.564750,1417.445894"/>
    <poly id="1008923397" type="landuse.recreation_ground" color="194,194,130" fill="1" layer="-3.00" shape="1822.410667,1136.848735 1816.067262,1124.705315 1816.262861,1123.242219 1817.050222,1123.362645 1817.921248,1107.963803 1832.245455,1103.827496 1835.269577,1102.731258 1879.787762,1090.174470 1884.122681,1088.694262 1905.007117,1082.826954 1909.614214,1092.629413 1890.897160,1102.374940 1886.786443,1104.257489 1846.722857,1125.193804 1843.917244,1126.459175 1822.410667,1136.848735"/>
    <poly id="1009976995" type="man_made.courtyard" color="255,230,230" fill="1" layer="-1.00" shape="2010.428895,885.056079 2033.316827,878.391571 2039.828470,901.972013 2035.718963,903.032967 2035.431225,904.395038 2034.561771,905.461496 2033.425852,906.113997 2030.643070,906.879995 2029.719841,903.938070 2026.306292,904.962957 2027.137164,907.826063 2023.810152,908.707665 2022.356114,908.301689 2020.798738,907.317185 2016.961153,908.336998 2010.428895,885.056079"/>
    <poly id="1010489478" type="amenity.parking" color="184,184,179" fill="1" layer="-1.00" shape="1848.306588,1287.165327 1844.152023,1287.049054 1839.771452,1283.843790 1836.838053,1283.742117 1836.653522,1289.246389 1831.914346,1289.078728 1831.590366,1298.444749 1833.989632,1298.528934 1833.573385,1310.647091 1835.981128,1310.731378 1835.137229,1335.211795 1835.108726,1336.177308 1835.081947,1336.998519 1828.164565,1336.704909 1827.513809,1347.865512 1833.811326,1348.218323 1834.324111,1348.601912 1834.562476,1349.237562 1834.561404,1350.036877 1834.456578,1351.001478 1846.114531,1352.051173 1848.306588,1287.165327"/>
    <poly id="1010489484" type="amenity.parking" color="184,184,179" fill="1" layer="-1.00" shape="1786.929905,1335.801440 1789.184464,1335.928289 1793.100096,1336.163797 1793.351335,1335.012215 1793.602840,1333.838432 1794.006298,1322.075378 1794.234149,1314.362372 1794.658282,1302.288716 1806.739410,1302.710602 1807.010073,1294.964802 1794.996643,1294.554826 1795.408583,1282.791874 1807.566066,1283.214673 1807.836597,1275.479974 1795.916551,1275.060011 1796.111257,1269.411538 1789.472735,1269.199009 1787.283801,1293.396916 1786.487770,1301.813648 1785.731556,1318.257433 1785.421237,1332.874754 1786.031021,1332.948649 1786.562759,1333.165935 1786.931913,1333.503398 1787.061232,1334.037827 1786.929905,1335.801440"/>
    <poly id="1010489487" type="amenity.parking" color="184,184,179" fill="1" layer="-1.00" shape="1776.565388,1340.073932 1780.123290,1336.175303 1779.568630,1335.746811 1779.084332,1335.108225 1778.856961,1334.261775 1778.725260,1333.216635 1778.828902,1330.220396 1778.859116,1329.821093 1779.117502,1329.491127 1779.424914,1329.317171 1779.933730,1329.323248 1780.523637,1329.641144 1783.936923,1332.879226 1787.832583,1238.227691 1790.933796,1233.513182 1793.715363,1233.546412 1794.137579,1228.022777 1785.437488,1211.521537 1734.995816,1239.350780 1705.347992,1184.309602 1703.908701,1184.092593 1700.788857,1193.214313 1696.809144,1191.945627 1683.320567,1230.563126 1656.569492,1221.329272 1660.351123,1210.050585 1654.821609,1207.875293 1651.035345,1218.831976 1650.584030,1218.982018 1650.083024,1219.031551 1649.447523,1218.979564 1648.858264,1218.606178 1647.151835,1217.320224 1644.244479,1226.411196 1645.103912,1226.177207 1645.961358,1226.109721 1647.097731,1226.123275 1648.332691,1226.404446 1648.751548,1226.842411 1648.528020,1227.805598 1647.624486,1230.314921 1673.386248,1239.292702 1672.962768,1240.664268 1722.753858,1258.077635 1735.391182,1259.516304 1735.119014,1261.000691 1747.908315,1262.496705 1764.982043,1264.598996 1764.851780,1266.273807 1767.825865,1266.520260 1767.469587,1261.553515 1768.316647,1247.442186 1767.693470,1247.778898 1766.877896,1247.891277 1759.442598,1247.635955 1755.816975,1247.259605 1755.532357,1246.234844 1770.406058,1237.964030 1770.199431,1246.032545 1770.137271,1248.396479 1769.166649,1272.853178 1768.361566,1291.261392 1769.995347,1292.235657 1770.645543,1293.187073 1771.232665,1294.448585 1771.531057,1295.739954 1771.102259,1297.555522 1770.313713,1298.956029 1769.448452,1299.678411 1768.627050,1300.279198 1767.861559,1323.184101 1767.712188,1329.299391 1768.676279,1330.953967 1763.109746,1335.439209 1768.937243,1341.770205 1773.879943,1337.677179 1775.017614,1339.000777 1776.565388,1340.073932"/>
    <poly id="1010489499" type="natural.tree_row" color="140,196,107" fill="0" layer="-4.00" shape="1680.864476,1260.830528 1697.130466,1262.390142"/>
    <poly id="1010489513" type="leisure.outdoor_seating" color="207,245,201" fill="1" layer="-2.00" shape="1708.194554,1266.307887 1709.596861,1266.779797 1710.768217,1271.678553 1707.759947,1271.453918 1706.048109,1271.333572 1706.413551,1267.718758 1707.076608,1267.593451 1707.640816,1267.222725 1708.097031,1266.661980 1708.194554,1266.307887"/>
    <poly id="1010489527" type="building.retail" color="255,230,230" fill="1" layer="-1.00" shape="1600.219918,1361.305523 1605.719244,1345.373446 1613.757216,1346.290809 1611.401396,1362.482393 1600.219918,1361.305523"/>
    <poly id="1010489527#1" type="shop.convenience" color="237,199,255" fill="1" layer="-1.00" shape="1600.219918,1361.305523 1605.719244,1345.373446 1613.757216,1346.290809 1611.401396,1362.482393 1600.219918,1361.305523"/>
    <poly id="1010489886" type="building.garage" color="255,230,230" fill="1" layer="-1.00" shape="1764.059092,1273.702523 1768.118259,1273.995240 1768.656542,1266.563486 1767.825865,1266.520260 1764.851780,1266.273807 1764.059092,1273.702523"/>
    <poly id="1010491191" type="amenity.parking" color="184,184,179" fill="1" layer="-1.00" shape="1153.291483,1474.923913 1158.420180,1463.694278 1173.582037,1470.357571 1172.162114,1473.515823 1166.438715,1486.259333 1164.993966,1485.076510 1164.376500,1484.935964 1163.712682,1485.127920 1162.438482,1486.012045 1157.156990,1480.809284 1157.889386,1479.841019 1158.500506,1478.371736 1158.294956,1477.825312 1153.291483,1474.923913"/>
    <poly id="1012627889" type="natural.tree_row" color="140,196,107" fill="0" layer="-4.00" shape="2248.938795,801.333060 2261.669165,778.127766"/>
    <poly id="1012627890" type="natural.tree_row" color="140,196,107" fill="0" layer="-4.00" shape="2267.093461,810.976451 2280.382762,788.555024"/>
    <poly id="1012627891" type="natural.tree_row" color="140,196,107" fill="0" layer="-4.00" shape="2264.969337,773.837700 2270.344440,776.877521"/>
    <poly id="1012627892" type="natural.tree_row" color="140,196,107" fill="0" layer="-4.00" shape="2277.196899,780.501278 2283.492545,783.874116"/>
    <poly id="1012627893" type="natural.tree_row" color="140,196,107" fill="0" layer="-4.00" shape="2272.514154,817.280745 2290.112356,788.505354"/>
    <poly id="1030258875" type="amenity.parking" color="184,184,179" fill="1" layer="-1.00" shape="1253.391254,1605.325219 1251.258041,1603.556911 1253.981563,1599.181860 1246.749734,1592.534845 1242.660809,1599.047425 1232.319198,1594.306304 1226.681942,1607.650288 1243.785310,1615.768911 1253.391254,1605.325219"/>
    <poly id="1030258877" type="amenity.parking" color="184,184,179" fill="1" layer="-1.00" shape="1258.708735,1687.463617 1243.280604,1720.408023 1212.106901,1705.905375 1227.543268,1672.972109 1258.708735,1687.463617"/>
    <poly id="1030258879" type="amenity.parking" color="184,184,179" fill="1" layer="-1.00" shape="1178.239863,1763.987444 1181.634177,1756.678364 1185.868240,1758.649213 1194.855244,1739.594249 1230.998566,1756.964576 1218.811472,1782.675864 1212.109201,1779.299079 1212.504363,1778.160289 1212.680942,1777.573992 1212.564287,1776.684467 1211.986779,1775.323198 1211.113929,1773.836304 1209.776668,1772.177370 1207.425466,1777.345080 1178.239863,1763.987444"/>
    <poly id="1030258880" type="amenity.parking" color="184,184,179" fill="1" layer="-1.00" shape="1296.191645,1864.759848 1301.094756,1852.528466 1281.882968,1844.895324 1282.346239,1843.735144 1265.362898,1836.983356 1264.139350,1840.032907 1272.985454,1843.557328 1269.672890,1851.833192 1275.488752,1854.144835 1274.667135,1856.200001 1296.191645,1864.759848"/>
    <poly id="1030258881" type="amenity.parking" color="184,184,179" fill="1" layer="-1.00" shape="1266.169183,1939.029171 1279.166651,1912.916819 1276.680464,1911.599479 1277.612402,1908.824010 1242.946216,1894.257511 1234.980810,1911.559372 1236.111805,1912.016873 1235.381855,1915.638479 1252.026779,1922.308472 1247.962746,1932.451617 1266.169183,1939.029171"/>
    <poly id="1036394000" type="amenity.parking" color="184,184,179" fill="1" layer="-1.00" shape="1997.572089,1974.241936 1987.227781,1971.931001 1977.436471,1973.723262 1969.290040,1976.256846 1962.477992,1981.382028 1957.804848,1988.486735 1955.874163,1996.035041 1956.391804,2003.801386 1959.298964,2011.030147 1964.315838,2017.007462 1970.940831,2021.127832 1978.525544,2023.006037 1986.325912,2022.455540 1993.561299,2019.511401 1999.532536,2014.487195 2003.902702,2007.190154 2006.146614,2000.400532 2007.571828,1991.158711 2008.457810,1981.621785 1996.659686,1978.904861 1997.572089,1974.241936"/>
    <poly id="1036394004" type="amenity.parking" color="184,184,179" fill="1" layer="-1.00" shape="1210.265894,1921.002174 1193.927911,1914.191595 1198.090736,1904.293834 1209.863142,1909.207330 1211.093555,1906.291074 1215.287762,1908.039434 1214.484840,1909.950505 1228.501995,1915.801025 1227.184012,1918.949376 1232.314962,1921.086328 1228.989865,1928.995703 1215.200499,1923.247801 1216.623131,1919.856452 1211.627190,1917.776622 1210.265894,1921.002174"/>
    <poly id="1036395735" type="amenity.parking" color="184,184,179" fill="1" layer="-1.00" shape="1798.304409,2039.834244 1841.973102,2057.430763 1844.858284,2048.772563 1800.704612,2032.013968 1798.304409,2039.834244"/>
    <poly id="1036407490" type="amenity.waste_disposal" color="237,199,199" fill="1" layer="-1.00" shape="1602.306560,2110.311124 1603.290658,2106.725884 1598.700640,2105.472160 1597.716544,2109.057401 1602.306560,2110.311124"/>
    <poly id="103686985" type="amenity.parking" color="184,184,179" fill="1" layer="-1.00" shape="1195.075428,1364.435528 1218.780574,1374.475311 1225.803623,1358.005978 1273.931209,1378.382981 1266.951790,1394.741772 1238.892332,1382.851650 1231.450629,1400.292955 1212.623290,1392.320441 1210.293992,1397.777055 1185.356728,1387.223098 1195.075428,1364.435528"/>
    <poly id="103686985#1" type="building.yes" color="255,230,230" fill="1" layer="-1.00" shape="1195.075428,1364.435528 1218.780574,1374.475311 1225.803623,1358.005978 1273.931209,1378.382981 1266.951790,1394.741772 1238.892332,1382.851650 1231.450629,1400.292955 1212.623290,1392.320441 1210.293992,1397.777055 1185.356728,1387.223098 1195.075428,1364.435528"/>
    <poly id="1039908831" type="building.yes" color="255,230,230" fill="1" layer="-1.00" shape="2108.295822,666.979709 2108.070859,665.933446 2106.951202,660.979739 2099.751228,662.980574 2085.360828,608.143011 2116.075177,599.663018 2128.610878,655.655196 2122.433542,657.257506 2123.916109,663.070403 2108.295822,666.979709"/>
    <poly id="1039908831#1" type="leisure.sports_hall" color="207,245,201" fill="1" layer="-2.00" shape="2108.295822,666.979709 2108.070859,665.933446 2106.951202,660.979739 2099.751228,662.980574 2085.360828,608.143011 2116.075177,599.663018 2128.610878,655.655196 2122.433542,657.257506 2123.916109,663.070403 2108.295822,666.979709"/>
    <poly id="1039983184" type="landuse.grass" color="194,194,130" fill="1" layer="-3.00" shape="967.085458,978.268541 973.220735,972.290715 972.909899,971.321185 957.533713,970.484207 957.182475,972.211920 956.634137,973.393316 961.905991,976.586391 967.085458,978.268541"/>
    <poly id="1039983185" type="landuse.grass" color="194,194,130" fill="1" layer="-3.00" shape="955.801915,979.211874 958.947810,987.886246 963.993155,982.983483 964.006029,981.895666 958.182485,979.450978 955.801915,979.211874"/>
    <poly id="1039983186" type="landuse.grass" color="194,194,130" fill="1" layer="-3.00" shape="952.107254,980.356038 947.962667,982.249798 948.655237,996.834560 954.245958,991.716209 955.023723,989.782611 952.107254,980.356038"/>
    <poly id="1039983187" type="landuse.grass" color="194,194,130" fill="1" layer="-3.00" shape="943.148937,976.897317 942.953507,993.414373 907.149548,960.607094 906.850257,958.660752 908.392456,956.636275 909.911077,955.888217 914.044113,954.971252 920.947525,955.041807 921.621191,959.756907 923.339926,962.885721 927.607109,968.553673 931.824824,972.666801 936.675412,975.621738 941.130408,976.884535 943.148937,976.897317"/>
    <poly id="1039983188" type="landuse.grass" color="194,194,130" fill="1" layer="-3.00" shape="952.184942,1001.028373 979.633686,970.801278 1003.565228,972.594425 964.729365,1012.511689 952.184942,1001.028373"/>
    <poly id="1039983189" type="landuse.grass" color="194,194,130" fill="1" layer="-3.00" shape="1036.173351,912.831408 1043.029140,911.913457 1046.150052,911.950425 1048.063149,912.272834 1049.654239,914.001348 1050.133301,915.805503 1050.401789,918.917168 1048.132435,923.608520 1041.365870,933.464416 1023.648514,949.107844 1012.845597,960.314782 1009.875949,938.908791 1015.790200,932.262277 1017.354648,928.361892 1018.398093,924.766187 1026.940337,918.239616 1036.173351,912.831408"/>
    <poly id="104205386" type="building.dormitory" color="255,230,230" fill="1" layer="-1.00" shape="1226.896612,1418.112701 1232.550522,1406.234345 1255.339409,1416.996087 1249.685469,1428.874426 1226.896612,1418.112701"/>
    <poly id="104205387" type="building.apartments" color="255,230,230" fill="1" layer="-1.00" shape="1215.643361,1371.540517 1191.866985,1362.499056 1199.890473,1339.624765 1208.792075,1314.229707 1211.419619,1310.086637 1215.115517,1307.399476 1219.830861,1306.001119 1238.214522,1307.784705 1215.643361,1371.540517"/>
    <poly id="104205388" type="amenity.place_of_worship" color="237,199,199" fill="1" layer="-1.00" shape="1205.378934,1514.620100 1203.666968,1513.800455 1202.635742,1514.221184 1199.885866,1512.956253 1199.466030,1511.885503 1197.779502,1511.066161 1199.271618,1507.542413 1194.086411,1504.949677 1193.869404,1505.368968 1191.719105,1504.322089 1189.197921,1503.082080 1190.075090,1501.349515 1185.018657,1498.625094 1186.430233,1495.455643 1172.755929,1489.231837 1173.522854,1487.497963 1172.544563,1487.031184 1175.587929,1480.717095 1176.372364,1481.081658 1177.418029,1478.729393 1179.459281,1479.675058 1214.189803,1496.140358 1208.988542,1507.047145 1209.907863,1507.479924 1208.706915,1510.052376 1207.762286,1509.608196 1205.378934,1514.620100"/>
    <poly id="104205388#1" type="building.yes" color="255,230,230" fill="1" layer="-1.00" shape="1205.378934,1514.620100 1203.666968,1513.800455 1202.635742,1514.221184 1199.885866,1512.956253 1199.466030,1511.885503 1197.779502,1511.066161 1199.271618,1507.542413 1194.086411,1504.949677 1193.869404,1505.368968 1191.719105,1504.322089 1189.197921,1503.082080 1190.075090,1501.349515 1185.018657,1498.625094 1186.430233,1495.455643 1172.755929,1489.231837 1173.522854,1487.497963 1172.544563,1487.031184 1175.587929,1480.717095 1176.372364,1481.081658 1177.418029,1478.729393 1179.459281,1479.675058 1214.189803,1496.140358 1208.988542,1507.047145 1209.907863,1507.479924 1208.706915,1510.052376 1207.762286,1509.608196 1205.378934,1514.620100"/>
    <poly id="104205389" type="building.residential" color="255,230,230" fill="1" layer="-1.00" shape="1169.321885,1429.108455 1180.613897,1398.090938 1204.277377,1406.631447 1192.993626,1437.660132 1169.321885,1429.108455"/>
    <poly id="104205390" type="amenity.parking" color="184,184,179" fill="1" layer="-1.00" shape="1197.019226,1436.486713 1205.375356,1419.167247 1243.696907,1437.507086 1235.340706,1454.826510 1197.019226,1436.486713"/>
    <poly id="104205390#1" type="building.parking" color="255,230,230" fill="1" layer="-1.00" shape="1197.019226,1436.486713 1205.375356,1419.167247 1243.696907,1437.507086 1235.340706,1454.826510 1197.019226,1436.486713"/>
    <poly id="104205391" type="building.residential" color="255,230,230" fill="1" layer="-1.00" shape="1170.413888,1440.722733 1163.247740,1456.402192 1219.169175,1481.778296 1226.335420,1466.098888 1170.413888,1440.722733"/>
    <poly id="104206036" type="building.university" color="255,230,230" fill="1" layer="-1.00" shape="1210.291852,1300.059480 1215.137016,1302.015386 1213.345986,1306.423723 1208.500692,1304.478918 1210.291852,1300.059480"/>
    <poly id="104206036#1" type="historic.ruins" color="128,255,128" fill="1" layer="-1.00" shape="1210.291852,1300.059480 1215.137016,1302.015386 1213.345986,1306.423723 1208.500692,1304.478918 1210.291852,1300.059480"/>
    <poly id="104431157" type="building.apartments" color="255,230,230" fill="1" layer="-1.00" shape="1234.380266,1520.004568 1240.215099,1507.884128 1261.501197,1518.039662 1265.414651,1509.881949 1244.727193,1500.022158 1250.371013,1488.276916 1289.148177,1506.777837 1283.608706,1518.302256 1275.209113,1514.283560 1271.156806,1522.706061 1279.902359,1526.873185 1274.101790,1538.960698 1234.380266,1520.004568"/>
    <poly id="104431158" type="amenity.place_of_worship" color="237,199,199" fill="1" layer="-1.00" shape="1363.073099,1387.468877 1360.532996,1387.105624 1361.531139,1375.915825 1363.060731,1361.401820 1369.465719,1361.988655 1369.774174,1358.872731 1366.395574,1358.410692 1363.278013,1358.107183 1364.488792,1343.300742 1367.259461,1343.533516 1370.031449,1343.655290 1371.186642,1329.958364 1388.844612,1331.422844 1409.289019,1333.220260 1409.175636,1334.195865 1410.070114,1336.004990 1409.935472,1338.767724 1408.618347,1341.116729 1407.112881,1342.186793 1405.024757,1342.328481 1403.069154,1364.841775 1407.947827,1365.399387 1406.515128,1379.603690 1405.313422,1391.501576 1403.567820,1391.369794 1402.486513,1398.850615 1389.090546,1397.747634 1384.843251,1399.728742 1379.869602,1399.314338 1375.070078,1396.381910 1368.389366,1395.447636 1362.214032,1394.808023 1363.073099,1387.468877"/>
    <poly id="104431158#1" type="building.yes" color="255,230,230" fill="1" layer="-1.00" shape="1363.073099,1387.468877 1360.532996,1387.105624 1361.531139,1375.915825 1363.060731,1361.401820 1369.465719,1361.988655 1369.774174,1358.872731 1366.395574,1358.410692 1363.278013,1358.107183 1364.488792,1343.300742 1367.259461,1343.533516 1370.031449,1343.655290 1371.186642,1329.958364 1388.844612,1331.422844 1409.289019,1333.220260 1409.175636,1334.195865 1410.070114,1336.004990 1409.935472,1338.767724 1408.618347,1341.116729 1407.112881,1342.186793 1405.024757,1342.328481 1403.069154,1364.841775 1407.947827,1365.399387 1406.515128,1379.603690 1405.313422,1391.501576 1403.567820,1391.369794 1402.486513,1398.850615 1389.090546,1397.747634 1384.843251,1399.728742 1379.869602,1399.314338 1375.070078,1396.381910 1368.389366,1395.447636 1362.214032,1394.808023 1363.073099,1387.468877"/>
    <poly id="104431159" type="building.cathedral" color="255,230,230" fill="1" layer="-1.00" shape="1334.704767,1409.423956 1343.926649,1389.938983 1359.015252,1397.056952 1369.330041,1401.931143 1367.980503,1404.868162 1366.685676,1407.483881 1385.889842,1416.560343 1381.253480,1426.296951 1361.965060,1417.175091 1359.964470,1421.369971 1334.704767,1409.423956"/>
    <poly id="104431160" type="building.apartments" color="255,230,230" fill="1" layer="-1.00" shape="1278.959493,1559.123671 1286.586751,1543.194453 1305.267135,1552.075766 1316.625393,1528.364176 1333.222690,1536.254951 1317.542049,1568.985279 1314.228592,1575.895598 1278.959493,1559.123671"/>
    <poly id="104431161" type="building.cathedral" color="255,230,230" fill="1" layer="-1.00" shape="1310.197011,1359.885342 1325.180791,1327.302141 1328.706944,1328.909394 1330.822796,1324.294010 1337.006119,1327.120736 1333.062045,1335.699916 1340.375776,1339.039659 1331.234162,1358.903050 1326.501682,1356.748575 1322.479333,1365.493357 1310.197011,1359.885342"/>
    <poly id="104431162" type="building.apartments" color="255,230,230" fill="1" layer="-1.00" shape="1259.342797,1466.257677 1278.124581,1428.779216 1304.751398,1442.017985 1307.383533,1436.775929 1320.570372,1443.338342 1299.156290,1486.058757 1259.342797,1466.257677"/>
    <poly id="104431165" type="building.retail" color="255,230,230" fill="1" layer="-1.00" shape="1276.146107,1593.194830 1288.772594,1580.511203 1278.629429,1570.487943 1265.994463,1583.171486 1276.146107,1593.194830"/>