<?xml version="1.0" encoding="UTF-8"?>

<<<<<<< HEAD
<!-- generated on 2022-12-04 18:26:32 by Eclipse SUMO GUI Version 1.14.1
=======
<!-- generated on 2022-12-04 17:54:38 by Eclipse SUMO GUI Version 1.14.1
>>>>>>> e9ad27f2b33e40028e9754b8bf8e2a1805d38a45
<configuration xmlns:xsi="http://www.w3.org/2001/XMLSchema-instance" xsi:noNamespaceSchemaLocation="http://sumo.dlr.de/xsd/sumoConfiguration.xsd">

    <input>
        <net-file value="verticalNetwork.net.xml"/>
        <route-files value="routes_EMS.rou.xml"/>
        <additional-files value="additionals_EMS.add.xml"/>
    </input>

    <time>
        <begin value="0"/>
        <end value="320"/>
    </time>

    <processing>
        <lateral-resolution value="0.5"/>
    </processing>

    <traci_server>
        <remote-port value="50415"/>
    </traci_server>

</configuration>
