<?xml version="1.0" encoding="UTF-8"?>

<!-- generated on 2022-11-07 11:28:24 by Eclipse SUMO netconvert Version 1.14.1
<configuration xmlns:xsi="http://www.w3.org/2001/XMLSchema-instance" xsi:noNamespaceSchemaLocation="http://sumo.dlr.de/xsd/netconvertConfiguration.xsd">

    <input>
        <type-files value="C:\Program%20Files%20(x86)\Eclipse\Sumo\data\typemap\osmNetconvert.typ.xml"/>
        <osm-files value="osm_bbox.osm.xml.gz"/>
    </input>

    <output>
        <output-file value="osm.net.xml"/>
        <output.street-names value="true"/>
        <output.original-names value="true"/>
    </output>

    <projection>
        <proj.utm value="true"/>
    </projection>

    <processing>
        <geometry.remove value="true"/>
        <roundabouts.guess value="true"/>
    </processing>

    <tls_building>
        <tls.discard-simple value="true"/>
        <tls.join value="true"/>
        <tls.guess-signals value="true"/>
        <tls.default-type value="actuated"/>
    </tls_building>

    <ramp_guessing>
        <ramps.guess value="true"/>
    </ramp_guessing>

    <edge_removal>
        <keep-edges.by-vclass value="passenger"/>
    </edge_removal>

    <junctions>
        <junctions.join value="true"/>
        <junctions.corner-detail value="5"/>
    </junctions>

    <report>
        <verbose value="true"/>
    </report>

</configuration>
-->

<net version="1.9" junctionCornerDetail="5" limitTurnSpeed="5.50" xmlns:xsi="http://www.w3.org/2001/XMLSchema-instance" xsi:noNamespaceSchemaLocation="http://sumo.dlr.de/xsd/net_file.xsd">

    <location netOffset="-587672.14,-4476577.16" convBoundary="0.00,0.00,3092.00,3185.33" origBoundary="-79.966018,40.435131,-79.929640,40.463666" projParameter="+proj=utm +zone=17 +ellps=WGS84 +datum=WGS84 +units=m +no_defs"/>

    <type id="highway.bridleway" priority="1" numLanes="1" speed="2.78" allow="pedestrian" oneway="1" width="2.00"/>
    <type id="highway.bus_guideway" priority="1" numLanes="1" speed="27.78" allow="bus" oneway="1"/>
    <type id="highway.cycleway" priority="1" numLanes="1" speed="5.56" allow="bicycle" oneway="0" width="1.00"/>
    <type id="highway.footway" priority="1" numLanes="1" speed="2.78" allow="pedestrian" oneway="1" width="2.00"/>
    <type id="highway.ford" priority="1" numLanes="1" speed="2.78" allow="army" oneway="0"/>
    <type id="highway.living_street" priority="2" numLanes="1" speed="2.78" disallow="tram rail_urban rail rail_electric rail_fast ship" oneway="0"/>
    <type id="highway.motorway" priority="14" numLanes="2" speed="39.44" allow="private emergency authority army vip passenger hov taxi bus coach delivery truck trailer motorcycle evehicle custom1 custom2" oneway="1"/>
    <type id="highway.motorway_link" priority="9" numLanes="1" speed="22.22" allow="private emergency authority army vip passenger hov taxi bus coach delivery truck trailer motorcycle evehicle custom1 custom2" oneway="1"/>
    <type id="highway.path" priority="1" numLanes="1" speed="5.56" allow="pedestrian bicycle" oneway="0" width="2.00"/>
    <type id="highway.pedestrian" priority="1" numLanes="1" speed="2.78" allow="pedestrian" oneway="1" width="2.00"/>
    <type id="highway.primary" priority="12" numLanes="2" speed="27.78" disallow="tram rail_urban rail rail_electric rail_fast ship" oneway="0"/>
    <type id="highway.primary_link" priority="7" numLanes="1" speed="22.22" disallow="tram rail_urban rail rail_electric rail_fast ship" oneway="0"/>
    <type id="highway.raceway" priority="15" numLanes="2" speed="83.33" allow="vip" oneway="0"/>
    <type id="highway.residential" priority="3" numLanes="1" speed="13.89" disallow="tram rail_urban rail rail_electric rail_fast ship" oneway="0"/>
    <type id="highway.secondary" priority="11" numLanes="1" speed="27.78" disallow="tram rail_urban rail rail_electric rail_fast ship" oneway="0"/>
    <type id="highway.secondary_link" priority="6" numLanes="1" speed="22.22" disallow="tram rail_urban rail rail_electric rail_fast ship" oneway="0"/>
    <type id="highway.service" priority="1" numLanes="1" speed="5.56" allow="pedestrian delivery bicycle" oneway="0"/>
    <type id="highway.stairs" priority="1" numLanes="1" speed="1.39" allow="pedestrian" oneway="1" width="2.00"/>
    <type id="highway.step" priority="1" numLanes="1" speed="1.39" allow="pedestrian" oneway="1" width="2.00"/>
    <type id="highway.steps" priority="1" numLanes="1" speed="1.39" allow="pedestrian" oneway="1" width="2.00"/>
    <type id="highway.tertiary" priority="10" numLanes="1" speed="22.22" disallow="tram rail_urban rail rail_electric rail_fast ship" oneway="0"/>
    <type id="highway.tertiary_link" priority="5" numLanes="1" speed="22.22" disallow="tram rail_urban rail rail_electric rail_fast ship" oneway="0"/>
    <type id="highway.track" priority="1" numLanes="1" speed="5.56" allow="pedestrian motorcycle moped bicycle" oneway="0"/>
    <type id="highway.trunk" priority="13" numLanes="2" speed="27.78" disallow="pedestrian bicycle tram rail_urban rail rail_electric rail_fast ship" oneway="0"/>
    <type id="highway.trunk_link" priority="8" numLanes="1" speed="22.22" disallow="pedestrian bicycle tram rail_urban rail rail_electric rail_fast ship" oneway="0"/>
    <type id="highway.unclassified" priority="4" numLanes="1" speed="13.89" disallow="tram rail_urban rail rail_electric rail_fast ship" oneway="0"/>
    <type id="highway.unsurfaced" priority="1" numLanes="1" speed="8.33" disallow="tram rail_urban rail rail_electric rail_fast ship" oneway="0"/>
    <type id="railway.highspeed" priority="21" numLanes="1" speed="69.44" allow="rail_fast" oneway="1"/>
    <type id="railway.light_rail" priority="19" numLanes="1" speed="27.78" allow="rail_urban" oneway="1"/>
    <type id="railway.preserved" priority="16" numLanes="1" speed="27.78" allow="rail" oneway="1"/>
    <type id="railway.rail" priority="20" numLanes="1" speed="44.44" allow="rail" oneway="1"/>
    <type id="railway.subway" priority="18" numLanes="1" speed="27.78" allow="rail_urban" oneway="1"/>
    <type id="railway.tram" priority="17" numLanes="1" speed="13.89" allow="tram" oneway="1"/>

    <edge id=":104187842_0" function="internal">
        <lane id=":104187842_0_0" index="0" disallow="tram rail_urban rail rail_electric rail_fast ship" speed="3.93" length="2.18" shape="188.68,1694.46 188.54,1693.90 188.26,1693.48 187.84,1693.19 187.28,1693.05"/>
    </edge>
    <edge id=":104187842_1" function="internal">
        <lane id=":104187842_1_0" index="0" disallow="tram rail_urban rail rail_electric rail_fast ship" speed="6.13" length="6.53" shape="187.66,1689.87 189.34,1690.30 190.60,1691.16 191.44,1692.43 191.86,1694.12"/>
    </edge>
    <edge id=":104192015_0" function="internal">
        <lane id=":104192015_0_0" index="0" disallow="tram rail_urban rail rail_electric rail_fast ship" speed="11.18" length="14.45" shape="351.81,2196.69 341.14,2186.94"/>
    </edge>
    <edge id=":104192015_1" function="internal">
        <lane id=":104192015_1_0" index="0" disallow="tram rail_urban rail rail_electric rail_fast ship" speed="8.59" length="14.46" shape="351.81,2196.69 349.52,2193.82 348.60,2190.68 349.05,2187.28 350.86,2183.62"/>
    </edge>
    <edge id=":104192015_2" function="internal">
        <lane id=":104192015_2_0" index="0" disallow="tram rail_urban rail rail_electric rail_fast ship" speed="3.65" length="4.67" shape="351.81,2196.69 351.47,2195.29 351.71,2194.43 352.55,2194.11 353.97,2194.33"/>
    </edge>
    <edge id=":104192015_3" function="internal">
        <lane id=":104192015_3_0" index="0" disallow="tram rail_urban rail rail_electric rail_fast ship" speed="7.20" length="9.89" shape="353.54,2185.38 352.25,2187.93 351.89,2190.28 352.47,2192.41 353.97,2194.33"/>
    </edge>
    <edge id=":104192015_4" function="internal">
        <lane id=":104192015_4_0" index="0" disallow="tram rail_urban rail rail_electric rail_fast ship" speed="7.75" length="14.82" shape="353.54,2185.38 350.78,2188.48 347.80,2189.78 344.58,2189.27 341.14,2186.94"/>
    </edge>
    <edge id=":104192015_5" function="internal">
        <lane id=":104192015_5_0" index="0" disallow="tram rail_urban rail rail_electric rail_fast ship" speed="3.65" length="4.67" shape="353.54,2185.38 352.21,2185.94 351.32,2185.83 350.87,2185.06 350.86,2183.62"/>
    </edge>
    <edge id=":104192015_6" function="internal">
        <lane id=":104192015_6_0" index="0" disallow="tram rail_urban rail rail_electric rail_fast ship" speed="6.20" length="9.05" shape="343.29,2184.57 345.39,2185.99 347.36,2186.31 349.18,2185.51 350.86,2183.62"/>
    </edge>
    <edge id=":104192015_7" function="internal">
        <lane id=":104192015_7_0" index="0" disallow="tram rail_urban rail rail_electric rail_fast ship" speed="11.18" length="14.47" shape="343.29,2184.57 353.97,2194.33"/>
    </edge>
    <edge id=":104192015_8" function="internal">
        <lane id=":104192015_8_0" index="0" disallow="tram rail_urban rail rail_electric rail_fast ship" speed="3.65" length="4.67" shape="343.29,2184.57 343.64,2185.97 343.40,2186.83 342.57,2187.15 341.14,2186.94"/>
    </edge>
    <edge id=":104217067_0" function="internal">
        <lane id=":104217067_0_0" index="0" disallow="tram rail_urban rail rail_electric rail_fast ship" speed="3.65" length="4.67" shape="888.07,2586.03 886.89,2586.86 886.00,2586.94 885.40,2586.28 885.09,2584.87"/>
    </edge>
    <edge id=":104361652_0" function="internal">
        <lane id=":104361652_0_0" index="0" disallow="tram rail_urban rail rail_electric rail_fast ship" speed="13.89" length="14.61" shape="2217.39,1316.79 2202.82,1315.63"/>
    </edge>
    <edge id=":104361652_1" function="internal">
        <lane id=":104361652_1_0" index="0" disallow="tram rail_urban rail rail_electric rail_fast ship" speed="7.86" length="4.29" shape="2217.39,1316.79 2213.45,1315.98 2213.23,1315.83"/>
    </edge>
    <edge id=":104361652_2" function="internal">
        <lane id=":104361652_2_0" index="0" disallow="tram rail_urban rail rail_electric rail_fast ship" speed="3.65" length="1.44" shape="2217.39,1316.79 2216.24,1315.92"/>
    </edge>
    <edge id=":104361652_9" function="internal">
        <lane id=":104361652_9_0" index="0" disallow="tram rail_urban rail rail_electric rail_fast ship" speed="7.86" length="10.22" shape="2213.23,1315.83 2210.82,1314.10 2209.50,1311.15 2209.49,1307.13"/>
    </edge>
    <edge id=":104361652_10" function="internal">
        <lane id=":104361652_10_0" index="0" disallow="tram rail_urban rail rail_electric rail_fast ship" speed="3.65" length="3.23" shape="2216.24,1315.92 2215.89,1315.10 2216.33,1314.33 2217.58,1313.60"/>
    </edge>
    <edge id=":104361652_3" function="internal">
        <lane id=":104361652_3_0" index="0" disallow="tram rail_urban rail rail_electric rail_fast ship" speed="6.34" length="9.04" shape="2212.66,1307.58 2212.66,1310.08 2213.49,1311.92 2215.12,1313.10 2217.58,1313.60"/>
    </edge>
    <edge id=":104361652_4" function="internal">
        <lane id=":104361652_4_0" index="0" disallow="tram rail_urban rail rail_electric rail_fast ship" speed="8.17" length="14.36" shape="2212.66,1307.58 2211.57,1311.42 2209.57,1314.05 2206.65,1315.45 2202.82,1315.63"/>
    </edge>
    <edge id=":104361652_5" function="internal">
        <lane id=":104361652_5_0" index="0" disallow="tram rail_urban rail rail_electric rail_fast ship" speed="3.65" length="4.67" shape="2212.66,1307.58 2211.70,1308.65 2210.85,1308.94 2210.12,1308.43 2209.49,1307.13"/>
    </edge>
    <edge id=":104361652_6" function="internal">
        <lane id=":104361652_6_0" index="0" disallow="tram rail_urban rail rail_electric rail_fast ship" speed="6.70" length="9.35" shape="2203.15,1312.44 2205.61,1312.32 2207.49,1311.39 2208.78,1309.66 2209.49,1307.13"/>
    </edge>
    <edge id=":104361652_7" function="internal">
        <lane id=":104361652_7_0" index="0" disallow="tram rail_urban rail rail_electric rail_fast ship" speed="13.89" length="14.48" shape="2203.15,1312.44 2217.58,1313.60"/>
    </edge>
    <edge id=":104361652_8" function="internal">
        <lane id=":104361652_8_0" index="0" disallow="tram rail_urban rail rail_electric rail_fast ship" speed="3.65" length="1.44" shape="2203.15,1312.44 2204.26,1313.36"/>
    </edge>
    <edge id=":104361652_11" function="internal">
        <lane id=":104361652_11_0" index="0" disallow="tram rail_urban rail rail_electric rail_fast ship" speed="3.65" length="3.23" shape="2204.26,1313.36 2204.58,1314.20 2204.10,1314.95 2202.82,1315.63"/>
    </edge>
    <edge id=":104361659_0" function="internal">
        <lane id=":104361659_0_0" index="0" disallow="tram rail_urban rail rail_electric rail_fast ship" speed="3.65" length="4.67" shape="2161.15,1311.40 2160.03,1310.49 2159.72,1309.65 2160.19,1308.90 2161.47,1308.22"/>
    </edge>
    <edge id=":104363212_0" function="internal">
        <lane id=":104363212_0_0" index="0" disallow="tram rail_urban rail rail_electric rail_fast ship" speed="6.62" length="9.18" shape="2088.45,2228.61 2086.05,2228.04 2084.01,2228.39 2082.33,2229.65 2081.01,2231.82"/>
    </edge>
    <edge id=":104363212_1" function="internal">
        <lane id=":104363212_1_0" index="0" disallow="tram rail_urban rail rail_electric rail_fast ship" speed="27.78" length="14.40" shape="2088.45,2228.61 2075.08,2223.27"/>
    </edge>
    <edge id=":104363212_2" function="internal">
        <lane id=":104363212_2_0" index="0" disallow="tram rail_urban rail rail_electric rail_fast ship" speed="3.65" length="1.44" shape="2088.45,2228.61 2087.63,2227.43"/>
    </edge>
    <edge id=":104363212_9" function="internal">
        <lane id=":104363212_9_0" index="0" disallow="tram rail_urban rail rail_electric rail_fast ship" speed="3.65" length="3.23" shape="2087.63,2227.43 2087.55,2226.53 2088.22,2225.94 2089.63,2225.64"/>
    </edge>
    <edge id=":104363212_3" function="internal">
        <lane id=":104363212_3_0" index="0" disallow="tram rail_urban rail rail_electric rail_fast ship" speed="27.78" length="14.39" shape="2076.27,2220.30 2089.63,2225.64"/>
    </edge>
    <edge id=":104363212_4" function="internal">
        <lane id=":104363212_4_0" index="0" disallow="tram rail_urban rail rail_electric rail_fast ship" speed="7.95" length="4.08" shape="2076.27,2220.30 2079.68,2222.27 2079.76,2222.38"/>
    </edge>
    <edge id=":104363212_5" function="internal">
        <lane id=":104363212_5_0" index="0" disallow="tram rail_urban rail rail_electric rail_fast ship" speed="3.65" length="1.44" shape="2076.27,2220.30 2077.09,2221.49"/>
    </edge>
    <edge id=":104363212_10" function="internal">
        <lane id=":104363212_10_0" index="0" disallow="tram rail_urban rail rail_electric rail_fast ship" speed="7.95" length="10.22" shape="2079.76,2222.38 2081.60,2224.84 2082.04,2228.03 2081.01,2231.82"/>
    </edge>
    <edge id=":104363212_11" function="internal">
        <lane id=":104363212_11_0" index="0" disallow="tram rail_urban rail rail_electric rail_fast ship" speed="3.65" length="3.23" shape="2077.09,2221.49 2077.16,2222.38 2076.49,2222.97 2075.08,2223.27"/>
    </edge>
    <edge id=":104363212_6" function="internal">
        <lane id=":104363212_6_0" index="0" disallow="tram rail_urban rail rail_electric rail_fast ship" speed="6.45" length="9.03" shape="2078.07,2230.55 2078.73,2228.15 2078.45,2226.14 2077.23,2224.51 2075.08,2223.27"/>
    </edge>
    <edge id=":104363212_7" function="internal">
        <lane id=":104363212_7_0" index="0" disallow="tram rail_urban rail rail_electric rail_fast ship" speed="8.10" length="14.23" shape="2078.07,2230.55 2080.11,2227.20 2082.72,2225.27 2085.89,2224.75 2089.63,2225.64"/>
    </edge>
    <edge id=":104363212_8" function="internal">
        <lane id=":104363212_8_0" index="0" disallow="tram rail_urban rail rail_electric rail_fast ship" speed="3.65" length="1.44" shape="2078.07,2230.55 2079.28,2229.77"/>
    </edge>
    <edge id=":104363212_12" function="internal">
        <lane id=":104363212_12_0" index="0" disallow="tram rail_urban rail rail_electric rail_fast ship" speed="3.65" length="3.23" shape="2079.28,2229.77 2080.18,2229.72 2080.75,2230.40 2081.01,2231.82"/>
    </edge>
    <edge id=":104371210_0" function="internal">
        <lane id=":104371210_0_0" index="0" disallow="tram rail_urban rail rail_electric rail_fast ship" speed="13.89" length="2.11" shape="731.29,538.55 733.40,538.68"/>
    </edge>
    <edge id=":104371210_1" function="internal">
        <lane id=":104371210_1_0" index="0" disallow="tram rail_urban rail rail_electric rail_fast ship" speed="3.65" length="4.67" shape="731.29,538.55 732.70,538.25 733.55,538.52 733.85,539.36 733.59,540.78"/>
    </edge>
    <edge id=":104383297_0" function="internal">
        <lane id=":104383297_0_0" index="0" disallow="tram rail_urban rail rail_electric rail_fast ship" speed="3.65" length="4.67" shape="2104.36,2067.51 2103.89,2068.87 2103.22,2069.46 2102.35,2069.28 2101.27,2068.33"/>
    </edge>
    <edge id=":104383352_0" function="internal">
        <lane id=":104383352_0_0" index="0" disallow="tram rail_urban rail rail_electric rail_fast ship" speed="6.09" length="9.07" shape="2062.40,1054.60 2059.99,1055.50 2058.63,1056.92 2058.32,1058.86 2059.04,1061.32"/>
    </edge>
    <edge id=":104383352_1" function="internal">
        <lane id=":104383352_1_0" index="0" disallow="tram rail_urban rail rail_electric rail_fast ship" speed="21.71" length="11.27" shape="2062.40,1054.60 2051.38,1056.97"/>
        <lane id=":104383352_1_1" index="1" disallow="tram rail_urban rail rail_electric rail_fast ship" speed="21.71" length="11.27" shape="2061.73,1051.47 2050.71,1053.84"/>
    </edge>
    <edge id=":104383352_3" function="internal">
        <lane id=":104383352_3_0" index="0" disallow="tram rail_urban rail rail_electric rail_fast ship" speed="3.65" length="1.44" shape="2061.73,1051.47 2060.39,1050.94"/>
    </edge>
    <edge id=":104383352_8" function="internal">
        <lane id=":104383352_8_0" index="0" disallow="tram rail_urban rail rail_electric rail_fast ship" speed="3.65" length="3.23" shape="2060.39,1050.94 2059.83,1050.25 2060.05,1049.38 2061.05,1048.34"/>
    </edge>
    <edge id=":104383352_4" function="internal">
        <lane id=":104383352_4_0" index="0" disallow="tram rail_urban rail rail_electric rail_fast ship" speed="21.71" length="11.26" shape="2049.38,1047.58 2060.38,1045.22"/>
        <lane id=":104383352_4_1" index="1" disallow="tram rail_urban rail rail_electric rail_fast ship" speed="21.71" length="11.26" shape="2050.05,1050.71 2061.05,1048.34"/>
    </edge>
    <edge id=":104383352_6" function="internal">
        <lane id=":104383352_6_0" index="0" disallow="tram rail_urban rail rail_electric rail_fast ship" speed="8.83" length="1.88" shape="2050.05,1050.71 2051.89,1051.05"/>
    </edge>
    <edge id=":104383352_7" function="internal">
        <lane id=":104383352_7_0" index="0" disallow="tram rail_urban rail rail_electric rail_fast ship" speed="3.65" length="1.44" shape="2050.05,1050.71 2051.39,1051.25"/>
    </edge>
    <edge id=":104383352_9" function="internal">
        <lane id=":104383352_9_0" index="0" disallow="tram rail_urban rail rail_electric rail_fast ship" speed="8.83" length="12.68" shape="2051.89,1051.05 2052.02,1051.08 2054.18,1052.96 2056.52,1056.38 2059.04,1061.32"/>
    </edge>
    <edge id=":104383352_10" function="internal">
        <lane id=":104383352_10_0" index="0" disallow="tram rail_urban rail rail_electric rail_fast ship" speed="3.65" length="3.23" shape="2051.39,1051.25 2051.94,1051.95 2051.72,1052.81 2050.71,1053.84"/>
    </edge>
    <edge id=":104472678_0" function="internal">
        <lane id=":104472678_0_0" index="0" disallow="tram rail_urban rail rail_electric rail_fast ship" speed="13.89" length="15.85" shape="2441.43,1288.18 2437.58,1288.69 2433.55,1288.91 2429.50,1288.83 2425.64,1288.49"/>
    </edge>
    <edge id=":104472678_1" function="internal">
        <lane id=":104472678_1_0" index="0" disallow="tram rail_urban rail rail_electric rail_fast ship" speed="8.92" length="1.80" shape="2441.43,1288.18 2439.62,1288.15"/>
    </edge>
    <edge id=":104472678_2" function="internal">
        <lane id=":104472678_2_0" index="0" disallow="tram rail_urban rail rail_electric rail_fast ship" speed="3.86" length="1.25" shape="2441.43,1288.18 2440.28,1287.69"/>
    </edge>
    <edge id=":104472678_9" function="internal">
        <lane id=":104472678_9_0" index="0" disallow="tram rail_urban rail rail_electric rail_fast ship" speed="8.92" length="12.60" shape="2439.62,1288.15 2438.33,1288.12 2435.51,1286.78 2432.97,1284.15 2430.71,1280.23"/>
    </edge>
    <edge id=":104472678_10" function="internal">
        <lane id=":104472678_10_0" index="0" disallow="tram rail_urban rail rail_electric rail_fast ship" speed="3.86" length="3.42" shape="2440.28,1287.69 2440.10,1287.62 2439.56,1286.90 2439.81,1286.04 2440.84,1285.04"/>
    </edge>
    <edge id=":104472678_3" function="internal">
        <lane id=":104472678_3_0" index="0" disallow="tram rail_urban rail rail_electric rail_fast ship" speed="6.36" length="9.77" shape="2434.04,1279.80 2435.78,1282.96 2437.50,1284.89 2439.19,1285.58 2440.84,1285.04"/>
    </edge>
    <edge id=":104472678_4" function="internal">
        <lane id=":104472678_4_0" index="0" disallow="tram rail_urban rail rail_electric rail_fast ship" speed="7.32" length="16.70" shape="2434.04,1279.80 2435.32,1284.23 2434.35,1287.15 2431.12,1288.57 2425.64,1288.49"/>
    </edge>
    <edge id=":104472678_5" function="internal">
        <lane id=":104472678_5_0" index="0" disallow="tram rail_urban rail rail_electric rail_fast ship" speed="3.71" length="4.90" shape="2434.04,1279.80 2433.37,1281.15 2432.59,1281.68 2431.71,1281.37 2430.71,1280.23"/>
    </edge>
    <edge id=":104472678_6" function="internal">
        <lane id=":104472678_6_0" index="0" disallow="tram rail_urban rail rail_electric rail_fast ship" speed="5.70" length="9.57" shape="2426.04,1285.32 2429.13,1285.35 2430.94,1284.52 2431.47,1282.81 2430.71,1280.23"/>
    </edge>
    <edge id=":104472678_7" function="internal">
        <lane id=":104472678_7_0" index="0" disallow="tram rail_urban rail rail_electric rail_fast ship" speed="13.36" length="15.16" shape="2426.04,1285.32 2429.87,1285.94 2433.77,1286.50 2437.51,1286.39 2440.84,1285.04"/>
    </edge>
    <edge id=":104472678_8" function="internal">
        <lane id=":104472678_8_0" index="0" disallow="tram rail_urban rail rail_electric rail_fast ship" speed="3.65" length="1.44" shape="2426.04,1285.32 2427.13,1286.26"/>
    </edge>
    <edge id=":104472678_11" function="internal">
        <lane id=":104472678_11_0" index="0" disallow="tram rail_urban rail rail_electric rail_fast ship" speed="3.65" length="3.23" shape="2427.13,1286.26 2427.42,1287.11 2426.93,1287.85 2425.64,1288.49"/>
    </edge>
    <edge id=":104507069_0" function="internal">
        <lane id=":104507069_0_0" index="0" disallow="tram rail_urban rail rail_electric rail_fast ship" speed="6.51" length="9.03" shape="1198.15,931.93 1197.66,934.36 1198.07,936.36 1199.37,937.93 1201.56,939.08"/>
        <lane id=":104507069_0_1" index="1" disallow="tram rail_urban rail rail_electric rail_fast ship" speed="8.00" length="14.19" shape="1195.13,930.86 1194.37,934.67 1195.00,937.82 1197.05,940.29 1200.49,942.09"/>
    </edge>
    <edge id=":104507069_2" function="internal">
        <lane id=":104507069_2_0" index="0" disallow="tram rail_urban rail rail_electric rail_fast ship" speed="3.65" length="1.44" shape="1195.13,930.86 1193.98,931.72"/>
    </edge>
    <edge id=":104507069_7" function="internal">
        <lane id=":104507069_7_0" index="0" disallow="tram rail_urban rail rail_electric rail_fast ship" speed="3.65" length="3.23" shape="1193.98,931.72 1193.09,931.83 1192.47,931.19 1192.12,929.79"/>
    </edge>
    <edge id=":104507069_3" function="internal">
        <lane id=":104507069_3_0" index="0" disallow="tram rail_urban rail rail_electric rail_fast ship" speed="6.52" length="9.04" shape="1184.96,933.23 1187.39,933.71 1189.39,933.30 1190.97,931.99 1192.12,929.79"/>
    </edge>
    <edge id=":104507069_4" function="internal">
        <lane id=":104507069_4_0" index="0" disallow="tram rail_urban rail rail_electric rail_fast ship" speed="11.18" length="17.58" shape="1184.96,933.23 1201.56,939.08"/>
        <lane id=":104507069_4_1" index="1" disallow="tram rail_urban rail rail_electric rail_fast ship" speed="11.18" length="17.58" shape="1183.91,936.26 1200.49,942.09"/>
        <lane id=":104507069_4_2" index="2" disallow="tram rail_urban rail rail_electric rail_fast ship" speed="11.18" length="17.58" shape="1182.85,939.28 1199.43,945.11"/>
    </edge>
    <edge id=":104507077_0" function="internal">
        <lane id=":104507077_0_0" index="0" disallow="tram rail_urban rail rail_electric rail_fast ship" speed="10.66" length="12.41" shape="1242.40,808.54 1240.26,809.74 1238.33,811.74 1236.62,814.54 1235.10,818.13"/>
    </edge>
    <edge id=":104507077_1" function="internal">
        <lane id=":104507077_1_0" index="0" disallow="tram rail_urban rail rail_electric rail_fast ship" speed="27.78" length="15.03" shape="1242.40,808.54 1238.82,809.66 1235.16,810.51 1231.45,811.17 1227.73,811.70"/>
    </edge>
    <edge id=":104507077_2" function="internal">
        <lane id=":104507077_2_0" index="0" disallow="tram rail_urban rail rail_electric rail_fast ship" speed="3.65" length="1.44" shape="1242.40,808.54 1241.00,808.19"/>
    </edge>
    <edge id=":104507077_9" function="internal">
        <lane id=":104507077_9_0" index="0" disallow="tram rail_urban rail rail_electric rail_fast ship" speed="3.65" length="3.23" shape="1241.00,808.19 1240.35,807.58 1240.46,806.69 1241.31,805.53"/>
    </edge>
    <edge id=":104507077_3" function="internal">
        <lane id=":104507077_3_0" index="0" disallow="tram rail_urban rail rail_electric rail_fast ship" speed="27.78" length="14.36" shape="1227.30,808.53 1230.92,808.02 1234.40,807.42 1237.84,806.62 1241.31,805.53"/>
    </edge>
    <edge id=":104507077_4" function="internal">
        <lane id=":104507077_4_0" index="0" disallow="tram rail_urban rail rail_electric rail_fast ship" speed="7.43" length="4.67" shape="1227.30,808.53 1231.97,808.55"/>
    </edge>
    <edge id=":104507077_5" function="internal">
        <lane id=":104507077_5_0" index="0" disallow="tram rail_urban rail rail_electric rail_fast ship" speed="3.65" length="1.44" shape="1227.30,808.53 1228.60,809.17"/>
    </edge>
    <edge id=":104507077_10" function="internal">
        <lane id=":104507077_10_0" index="0" disallow="tram rail_urban rail rail_electric rail_fast ship" speed="7.43" length="11.78" shape="1231.97,808.55 1232.19,808.55 1235.12,810.15 1236.09,813.35 1235.10,818.13"/>
    </edge>
    <edge id=":104507077_11" function="internal">
        <lane id=":104507077_11_0" index="0" disallow="tram rail_urban rail rail_electric rail_fast ship" speed="3.65" length="3.23" shape="1228.60,809.17 1229.10,809.91 1228.81,810.75 1227.73,811.70"/>
    </edge>
    <edge id=":104507077_6" function="internal">
        <lane id=":104507077_6_0" index="0" disallow="tram rail_urban rail rail_electric rail_fast ship" speed="5.73" length="9.19" shape="1232.09,817.07 1232.64,814.40 1232.10,812.61 1230.46,811.71 1227.73,811.70"/>
    </edge>
    <edge id=":104507077_7" function="internal">
        <lane id=":104507077_7_0" index="0" disallow="tram rail_urban rail rail_electric rail_fast ship" speed="11.77" length="15.24" shape="1232.09,817.07 1233.91,812.82 1236.05,809.48 1238.52,807.05 1241.31,805.53"/>
    </edge>
    <edge id=":104507077_8" function="internal">
        <lane id=":104507077_8_0" index="0" disallow="tram rail_urban rail rail_electric rail_fast ship" speed="3.65" length="1.44" shape="1232.09,817.07 1233.24,816.20"/>
    </edge>
    <edge id=":104507077_12" function="internal">
        <lane id=":104507077_12_0" index="0" disallow="tram rail_urban rail rail_electric rail_fast ship" speed="3.65" length="3.23" shape="1233.24,816.20 1234.13,816.09 1234.75,816.73 1235.10,818.13"/>
    </edge>
    <edge id=":104507928_0" function="internal">
        <lane id=":104507928_0_0" index="0" disallow="tram rail_urban rail rail_electric rail_fast ship" speed="10.07" length="13.63" shape="685.68,779.51 686.01,776.15 685.57,773.06 684.36,770.26 682.38,767.75"/>
        <lane id=":104507928_0_1" index="1" disallow="tram rail_urban rail rail_electric rail_fast ship" speed="10.71" length="13.63" shape="685.68,779.51 686.44,774.59 686.52,770.62 685.92,767.58 684.65,765.49"/>
    </edge>
    <edge id=":104507928_2" function="internal">
        <lane id=":104507928_2_0" index="0" disallow="tram rail_urban rail rail_electric rail_fast ship" speed="27.78" length="12.68" shape="691.47,776.64 682.38,767.75"/>
        <lane id=":104507928_2_1" index="1" disallow="tram rail_urban rail rail_electric rail_fast ship" speed="27.78" length="12.68" shape="693.72,774.36 684.65,765.49"/>
        <lane id=":104507928_2_2" index="2" disallow="tram rail_urban rail rail_electric rail_fast ship" speed="27.78" length="12.68" shape="695.96,772.09 686.91,763.23"/>
        <lane id=":104507928_2_3" index="3" disallow="tram rail_urban rail rail_electric rail_fast ship" speed="27.78" length="12.68" shape="698.21,769.81 689.18,760.97"/>
    </edge>
    <edge id=":104507936_0" function="internal">
        <lane id=":104507936_0_0" index="0" disallow="tram rail_urban rail rail_electric rail_fast ship" speed="22.22" length="0.66" shape="663.66,807.33 663.07,807.60"/>
    </edge>
    <edge id=":104507936_1" function="internal">
        <lane id=":104507936_1_0" index="0" disallow="tram rail_urban rail rail_electric rail_fast ship" speed="22.22" length="0.22" shape="661.80,804.66 661.86,804.64 661.90,804.62 661.94,804.60 662.00,804.56"/>
    </edge>
    <edge id=":104526094_0" function="internal">