<?xml version="1.0" encoding="UTF-8"?>

<!-- generated on 2022-10-19 15:59:53 by Eclipse SUMO netedit Version 1.14.1
<configuration xmlns:xsi="http://www.w3.org/2001/XMLSchema-instance" xsi:noNamespaceSchemaLocation="http://sumo.dlr.de/xsd/netconvertConfiguration.xsd">

    <input>
        <sumo-net-file value="C:\Users\connp\OneDrive\Documents\_Pitt\CS1980-Team_Project\testsumo\2lane4wayLeftLights.net.xml"/>
    </input>

    <output>
        <output-file value="C:\Users\connp\OneDrive\Documents\_Pitt\CS1980-Team_Project\testsumo\2lane4wayLeftLights.net.xml"/>
    </output>

    <processing>
        <geometry.min-radius.fix.railways value="false"/>
        <geometry.max-grade.fix value="false"/>
        <offset.disable-normalization value="true"/>
        <lefthand value="false"/>
    </processing>

    <junctions>
        <no-turnarounds value="true"/>
        <junctions.corner-detail value="5"/>
        <junctions.limit-turn-speed value="5.5"/>
        <rectangular-lane-cut value="false"/>
    </junctions>

    <pedestrian>
        <walkingareas value="false"/>
    </pedestrian>

</configuration>
-->

<net version="1.9" junctionCornerDetail="5" limitTurnSpeed="5.50" xmlns:xsi="http://www.w3.org/2001/XMLSchema-instance" xsi:noNamespaceSchemaLocation="http://sumo.dlr.de/xsd/net_file.xsd">

    <location netOffset="0.00,0.00" convBoundary="0.00,0.00,200.00,200.00" origBoundary="-10000000000.00,-10000000000.00,10000000000.00,10000000000.00" projParameter="!"/>

    <edge id=":J5_0" function="internal">
        <lane id=":J5_0_0" index="0" speed="6.51" length="9.03" shape="95.20,110.40 94.85,107.95 93.80,106.20 92.05,105.15 89.60,104.80"/>
    </edge>
    <edge id=":J5_1" function="internal">
        <lane id=":J5_1_0" index="0" speed="13.89" length="20.80" shape="95.20,110.40 95.20,89.60"/>
        <lane id=":J5_1_1" index="1" speed="13.89" length="20.80" shape="98.40,110.40 98.40,89.60"/>
    </edge>
    <edge id=":J5_3" function="internal">
        <lane id=":J5_3_0" index="0" speed="9.26" length="19.35" shape="98.40,110.40 99.15,105.15 101.40,101.40 105.15,99.15 110.40,98.40"/>
    </edge>
    <edge id=":J5_4" function="internal">
        <lane id=":J5_4_0" index="0" speed="6.51" length="9.03" shape="110.40,104.80 107.95,105.15 106.20,106.20 105.15,107.95 104.80,110.40"/>
    </edge>
    <edge id=":J5_5" function="internal">
        <lane id=":J5_5_0" index="0" speed="13.89" length="20.80" shape="110.40,104.80 89.60,104.80"/>
        <lane id=":J5_5_1" index="1" speed="13.89" length="20.80" shape="110.40,101.60 89.60,101.60"/>
    </edge>
    <edge id=":J5_7" function="internal">
        <lane id=":J5_7_0" index="0" speed="9.26" length="19.35" shape="110.40,101.60 105.15,100.85 101.40,98.60 99.15,94.85 98.40,89.60"/>
    </edge>
    <edge id=":J5_8" function="internal">
        <lane id=":J5_8_0" index="0" speed="6.51" length="9.03" shape="104.80,89.60 105.15,92.05 106.20,93.80 107.95,94.85 110.40,95.20"/>
    </edge>
    <edge id=":J5_9" function="internal">
        <lane id=":J5_9_0" index="0" speed="13.89" length="20.80" shape="104.80,89.60 104.80,110.40"/>
        <lane id=":J5_9_1" index="1" speed="13.89" length="20.80" shape="101.60,89.60 101.60,110.40"/>
    </edge>
    <edge id=":J5_11" function="internal">
        <lane id=":J5_11_0" index="0" speed="9.26" length="19.35" shape="101.60,89.60 100.85,94.85 98.60,98.60 94.85,100.85 89.60,101.60"/>
    </edge>
    <edge id=":J5_12" function="internal">
        <lane id=":J5_12_0" index="0" speed="6.51" length="9.03" shape="89.60,95.20 92.05,94.85 93.80,93.80 94.85,92.05 95.20,89.60"/>
    </edge>
    <edge id=":J5_13" function="internal">
        <lane id=":J5_13_0" index="0" speed="13.89" length="20.80" shape="89.60,95.20 110.40,95.20"/>
        <lane id=":J5_13_1" index="1" speed="13.89" length="20.80" shape="89.60,98.40 110.40,98.40"/>
    </edge>
    <edge id=":J5_15" function="internal">
        <lane id=":J5_15_0" index="0" speed="9.26" length="19.35" shape="89.60,98.40 94.85,99.15 98.60,101.40 100.85,105.15 101.60,110.40"/>
    </edge>

    <edge id="-E3" from="J5" to="J4" priority="-1">
        <lane id="-E3_0" index="0" speed="13.89" length="89.60" shape="89.60,104.80 0.00,104.80"/>
        <lane id="-E3_1" index="1" speed="13.89" length="89.60" shape="89.60,101.60 0.00,101.60"/>
    </edge>
    <edge id="-E4" from="J5" to="J6" priority="-1">
        <lane id="-E4_0" index="0" speed="13.89" length="89.60" shape="110.40,95.20 200.00,95.20"/>
        <lane id="-E4_1" index="1" speed="13.89" length="89.60" shape="110.40,98.40 200.00,98.40"/>
    </edge>
    <edge id="-E5" from="J5" to="J7" priority="-1">
        <lane id="-E5_0" index="0" speed="13.89" length="89.60" shape="104.80,110.40 104.80,200.00"/>
        <lane id="-E5_1" index="1" speed="13.89" length="89.60" shape="101.60,110.40 101.60,200.00"/>
    </edge>
    <edge id="-E6" from="J5" to="J8" priority="-1">
        <lane id="-E6_0" index="0" speed="13.89" length="89.60" shape="95.20,89.60 95.20,0.00"/>
        <lane id="-E6_1" index="1" speed="13.89" length="89.60" shape="98.40,89.60 98.40,0.00"/>
    </edge>
    <edge id="E3" from="J4" to="J5" priority="-1" length="89.60">
        <lane id="E3_0" index="0" speed="13.89" length="89.60" shape="0.00,95.20 89.60,95.20"/>
        <lane id="E3_1" index="1" speed="13.89" length="89.60" shape="0.00,98.40 89.60,98.40"/>
    </edge>
    <edge id="E4" from="J6" to="J5" priority="-1">
        <lane id="E4_0" index="0" speed="13.89" length="89.60" shape="200.00,104.80 110.40,104.80"/>
        <lane id="E4_1" index="1" speed="13.89" length="89.60" shape="200.00,101.60 110.40,101.60"/>
    </edge>
    <edge id="E5" from="J7" to="J5" priority="-1" length="89.60">
        <lane id="E5_0" index="0" speed="13.89" length="89.60" shape="95.20,200.00 95.20,110.40"/>
        <lane id="E5_1" index="1" speed="13.89" length="89.60" shape="98.40,200.00 98.40,110.40"/>
    </edge>
    <edge id="E6" from="J8" to="J5" priority="-1">
        <lane id="E6_0" index="0" speed="13.89" length="89.60" shape="104.80,0.00 104.80,89.60"/>
        <lane id="E6_1" index="1" speed="13.89" length="89.60" shape="101.60,0.00 101.60,89.60"/>
    </edge>

    <tlLogic id="J5" type="static" programID="0" offset="0">
        <phase duration="35" state="GGGrrrrrGGGrrrrr"/>
        <phase duration="3"  state="yyyrrrrryyyrrrrr"/>
        <phase duration="6"  state="rrrGrrrrrrrGrrrr"/>
        <phase duration="3"  state="rrryrrrrrrryrrrr"/>
        <phase duration="35" state="rrrrGGGrrrrrGGGr"/>
        <phase duration="3"  state="rrrryyyrrrrryyyr"/>
        <phase duration="6"  state="rrrrrrrGrrrrrrrG"/>
        <phase duration="3"  state="rrrrrrryrrrrrrry"/>
    </tlLogic>

    <junction id="J4" type="dead_end" x="0.00" y="100.00" incLanes="-E3_0 -E3_1" intLanes="" shape="0.00,100.00 0.00,106.40 0.00,100.00"/>
    <junction id="J5" type="traffic_light" x="100.00" y="100.00" incLanes="E5_0 E5_1 E4_0 E4_1 E6_0 E6_1 E3_0 E3_1" intLanes=":J5_0_0 :J5_1_0 :J5_1_1 :J5_3_0 :J5_4_0 :J5_5_0 :J5_5_1 :J5_7_0 :J5_8_0 :J5_9_0 :J5_9_1 :J5_11_0 :J5_12_0 :J5_13_0 :J5_13_1 :J5_15_0" shape="93.60,110.40 106.40,110.40 106.84,108.18 107.40,107.40 108.18,106.84 109.18,106.51 110.40,106.40 110.40,93.60 108.18,93.16 107.40,92.60 106.84,91.82 106.51,90.82 106.40,89.60 93.60,89.60 93.16,91.82 92.60,92.60 91.82,93.16 90.82,93.49 89.60,93.60 89.60,106.40 91.82,106.84 92.60,107.40 93.16,108.18 93.49,109.18">
        <request index="0"  response="0000000000000000" foes="0000000001100000" cont="0"/>
        <request index="1"  response="0000000000000000" foes="1111100011100000" cont="0"/>
        <request index="2"  response="0000000000000000" foes="1111100011100000" cont="0"/>
        <request index="3"  response="0000011000000000" foes="1110011011100000" cont="0"/>
        <request index="4"  response="0000011000000000" foes="0000011000000000" cont="0"/>
        <request index="5"  response="0000111000001111" foes="1000111000001111" cont="0"/>
        <request index="6"  response="0000111000001111" foes="1000111000001111" cont="0"/>
        <request index="7"  response="0110111000001110" foes="0110111000001110" cont="0"/>
        <request index="8"  response="0000000000000000" foes="0110000000000000" cont="0"/>
        <request index="9"  response="0000000000000000" foes="1110000011111000" cont="0"/>
        <request index="10" response="0000000000000000" foes="1110000011111000" cont="0"/>
        <request index="11" response="0000000000000110" foes="1110000011100110" cont="0"/>
        <request index="12" response="0000000000000110" foes="0000000000000110" cont="0"/>
        <request index="13" response="0000111100001110" foes="0000111110001110" cont="0"/>
        <request index="14" response="0000111100001110" foes="0000111110001110" cont="0"/>
        <request index="15" response="0000111001101110" foes="0000111001101110" cont="0"/>
    </junction>
    <junction id="J6" type="dead_end" x="200.00" y="100.00" incLanes="-E4_0 -E4_1" intLanes="" shape="200.00,100.00 200.00,93.60 200.00,100.00"/>
    <junction id="J7" type="dead_end" x="100.00" y="200.00" incLanes="-E5_0 -E5_1" intLanes="" shape="100.00,200.00 106.40,200.00 100.00,200.00"/>
    <junction id="J8" type="dead_end" x="100.00" y="0.00" incLanes="-E6_0 -E6_1" intLanes="" shape="100.00,0.00 93.60,0.00 100.00,0.00"/>

    <connection from="E3" to="-E6" fromLane="0" toLane="0" via=":J5_12_0" tl="J5" linkIndex="12" dir="r" state="o"/>
    <connection from="E3" to="-E4" fromLane="0" toLane="0" via=":J5_13_0" tl="J5" linkIndex="13" dir="s" state="o"/>
    <connection from="E3" to="-E4" fromLane="1" toLane="1" via=":J5_13_1" tl="J5" linkIndex="14" dir="s" state="o"/>
    <connection from="E3" to="-E5" fromLane="1" toLane="1" via=":J5_15_0" tl="J5" linkIndex="15" dir="l" state="o"/>
    <connection from="E4" to="-E5" fromLane="0" toLane="0" via=":J5_4_0" tl="J5" linkIndex="4" dir="r" state="o"/>
    <connection from="E4" to="-E3" fromLane="0" toLane="0" via=":J5_5_0" tl="J5" linkIndex="5" dir="s" state="o"/>
    <connection from="E4" to="-E3" fromLane="1" toLane="1" via=":J5_5_1" tl="J5" linkIndex="6" dir="s" state="o"/>
    <connection from="E4" to="-E6" fromLane="1" toLane="1" via=":J5_7_0" tl="J5" linkIndex="7" dir="l" state="o"/>
    <connection from="E5" to="-E3" fromLane="0" toLane="0" via=":J5_0_0" tl="J5" linkIndex="0" dir="r" state="O"/>
    <connection from="E5" to="-E6" fromLane="0" toLane="0" via=":J5_1_0" tl="J5" linkIndex="1" dir="s" state="O"/>
    <connection from="E5" to="-E6" fromLane="1" toLane="1" via=":J5_1_1" tl="J5" linkIndex="2" dir="s" state="O"/>
    <connection from="E5" to="-E4" fromLane="1" toLane="1" via=":J5_3_0" tl="J5" linkIndex="3" dir="l" state="o"/>
    <connection from="E6" to="-E4" fromLane="0" toLane="0" via=":J5_8_0" tl="J5" linkIndex="8" dir="r" state="O"/>
    <connection from="E6" to="-E5" fromLane="0" toLane="0" via=":J5_9_0" tl="J5" linkIndex="9" dir="s" state="O"/>
    <connection from="E6" to="-E5" fromLane="1" toLane="1" via=":J5_9_1" tl="J5" linkIndex="10" dir="s" state="O"/>
    <connection from="E6" to="-E3" fromLane="1" toLane="1" via=":J5_11_0" tl="J5" linkIndex="11" dir="l" state="o"/>

    <connection from=":J5_0" to="-E3" fromLane="0" toLane="0" dir="r" state="M"/>
    <connection from=":J5_1" to="-E6" fromLane="0" toLane="0" dir="s" state="M"/>
    <connection from=":J5_1" to="-E6" fromLane="1" toLane="1" dir="s" state="M"/>
    <connection from=":J5_3" to="-E4" fromLane="0" toLane="1" dir="l" state="M"/>
    <connection from=":J5_4" to="-E5" fromLane="0" toLane="0" dir="r" state="M"/>
    <connection from=":J5_5" to="-E3" fromLane="0" toLane="0" dir="s" state="M"/>
    <connection from=":J5_5" to="-E3" fromLane="1" toLane="1" dir="s" state="M"/>
    <connection from=":J5_7" to="-E6" fromLane="0" toLane="1" dir="l" state="M"/>
    <connection from=":J5_8" to="-E4" fromLane="0" toLane="0" dir="r" state="M"/>
    <connection from=":J5_9" to="-E5" fromLane="0" toLane="0" dir="s" state="M"/>
    <connection from=":J5_9" to="-E5" fromLane="1" toLane="1" dir="s" state="M"/>
    <connection from=":J5_11" to="-E3" fromLane="0" toLane="1" dir="l" state="M"/>
    <connection from=":J5_12" to="-E6" fromLane="0" toLane="0" dir="r" state="M"/>
    <connection from=":J5_13" to="-E4" fromLane="0" toLane="0" dir="s" state="M"/>
    <connection from=":J5_13" to="-E4" fromLane="1" toLane="1" dir="s" state="M"/>
    <connection from=":J5_15" to="-E5" fromLane="0" toLane="1" dir="l" state="M"/>

</net>
