<?xml version="1.0" encoding="UTF-8"?>

<!-- generated on 2022-11-26 18:17:26 by Eclipse SUMO netedit Version 1.14.1
<configuration xmlns:xsi="http://www.w3.org/2001/XMLSchema-instance" xsi:noNamespaceSchemaLocation="http://sumo.dlr.de/xsd/netconvertConfiguration.xsd">

    <input>
        <sumo-net-file value="C:\Users\connp\OneDrive\Documents\_Pitt\Traffic_Capstone\team-project\3x3Grid\network.net.xml"/>
    </input>

    <output>
        <output-file value="C:\Users\connp\OneDrive\Documents\_Pitt\Traffic_Capstone\team-project\3x3Grid\network.net.xml"/>
    </output>

    <processing>
        <geometry.min-radius.fix.railways value="false"/>
        <geometry.max-grade.fix value="false"/>
        <offset.disable-normalization value="true"/>
        <lefthand value="false"/>
    </processing>

    <junctions>
        <no-turnarounds value="true"/>
        <junctions.corner-detail value="5"/>
        <junctions.limit-turn-speed value="5.5"/>
        <rectangular-lane-cut value="false"/>
    </junctions>

    <pedestrian>
        <walkingareas value="false"/>
    </pedestrian>

    <netedit>
        <route-files value="C:\Users\connp\OneDrive\Documents\_Pitt\Traffic_Capstone\team-project\3x3Grid\routes_EMS.rou.xml"/>
    </netedit>

</configuration>
-->

<net version="1.9" junctionCornerDetail="5" limitTurnSpeed="5.50" xmlns:xsi="http://www.w3.org/2001/XMLSchema-instance" xsi:noNamespaceSchemaLocation="http://sumo.dlr.de/xsd/net_file.xsd">

    <location netOffset="0.00,0.00" convBoundary="-200.00,0.00,200.00,400.00" origBoundary="-10000000000.00,-10000000000.00,10000000000.00,10000000000.00" projParameter="!"/>

    <edge id=":J0_0" function="internal">
        <lane id=":J0_0_0" index="0" speed="6.65" length="9.35" width="3.60" shape="-12.60,118.40 -12.96,115.86 -14.05,114.05 -15.86,112.96 -18.40,112.60"/>
    </edge>
    <edge id=":J0_1" function="internal">
        <lane id=":J0_1_0" index="0" speed="13.89" length="36.92" width="3.60" shape="-9.00,118.40 -9.56,107.45 -10.80,100.00 -12.04,92.55 -12.60,81.60"/>
        <lane id=":J0_1_1" index="1" speed="13.89" length="36.92" width="3.60" shape="-9.00,118.40 -9.00,81.60"/>
        <lane id=":J0_1_2" index="2" speed="13.89" length="36.92" width="3.60" shape="-5.40,118.40 -5.40,81.60"/>
        <lane id=":J0_1_3" index="3" speed="13.89" length="36.92" width="3.60" shape="-5.40,118.40 -4.84,107.45 -3.60,100.00 -2.36,92.55 -1.80,81.60"/>
    </edge>
    <edge id=":J0_5" function="internal">
        <lane id=":J0_5_0" index="0" speed="11.91" length="8.93" width="3.60" shape="-1.80,118.40 -0.54,109.56"/>
    </edge>
    <edge id=":J0_6" function="internal">
        <lane id=":J0_6_0" index="0" speed="3.87" length="1.74" width="3.60" shape="-1.80,118.40 -0.90,117.05 -0.79,117.00"/>
    </edge>
    <edge id=":J0_28" function="internal">
        <lane id=":J0_28_0" index="0" speed="11.91" length="23.65" width="3.60" shape="-0.54,109.56 3.25,103.25 9.56,99.46 18.40,98.20"/>
    </edge>
    <edge id=":J0_29" function="internal">
        <lane id=":J0_29_0" index="0" speed="3.87" length="3.51" width="3.60" shape="-0.79,117.00 0.00,116.60 0.90,117.05 1.80,118.40"/>
    </edge>
    <edge id=":J0_7" function="internal">
        <lane id=":J0_7_0" index="0" speed="6.65" length="9.35" width="3.60" shape="18.40,112.60 15.86,112.96 14.05,114.05 12.96,115.86 12.60,118.40"/>
    </edge>
    <edge id=":J0_8" function="internal">
        <lane id=":J0_8_0" index="0" speed="13.89" length="36.92" width="3.60" shape="18.40,109.00 7.45,109.56 0.00,110.80 -7.45,112.04 -18.40,112.60"/>
        <lane id=":J0_8_1" index="1" speed="13.89" length="36.92" width="3.60" shape="18.40,109.00 -18.40,109.00"/>
        <lane id=":J0_8_2" index="2" speed="13.89" length="36.92" width="3.60" shape="18.40,105.40 -18.40,105.40"/>
        <lane id=":J0_8_3" index="3" speed="13.89" length="36.92" width="3.60" shape="18.40,105.40 7.45,104.84 0.00,103.60 -7.45,102.36 -18.40,101.80"/>
    </edge>
    <edge id=":J0_12" function="internal">
        <lane id=":J0_12_0" index="0" speed="11.91" length="8.93" width="3.60" shape="18.40,101.80 9.56,100.54"/>
    </edge>
    <edge id=":J0_13" function="internal">
        <lane id=":J0_13_0" index="0" speed="3.87" length="1.74" width="3.60" shape="18.40,101.80 17.05,100.90 17.00,100.79"/>
    </edge>
    <edge id=":J0_30" function="internal">
        <lane id=":J0_30_0" index="0" speed="11.91" length="23.65" width="3.60" shape="9.56,100.54 3.25,96.75 -0.54,90.44 -1.80,81.60"/>
    </edge>
    <edge id=":J0_31" function="internal">
        <lane id=":J0_31_0" index="0" speed="3.87" length="3.51" width="3.60" shape="17.00,100.79 16.60,100.00 17.05,99.10 18.40,98.20"/>
    </edge>
    <edge id=":J0_14" function="internal">
        <lane id=":J0_14_0" index="0" speed="6.65" length="9.35" width="3.60" shape="12.60,81.60 12.96,84.14 14.05,85.95 15.86,87.04 18.40,87.40"/>
    </edge>
    <edge id=":J0_15" function="internal">
        <lane id=":J0_15_0" index="0" speed="13.89" length="36.92" width="3.60" shape="9.00,81.60 9.56,92.55 10.80,100.00 12.04,107.45 12.60,118.40"/>
        <lane id=":J0_15_1" index="1" speed="13.89" length="36.92" width="3.60" shape="9.00,81.60 9.00,118.40"/>
        <lane id=":J0_15_2" index="2" speed="13.89" length="36.92" width="3.60" shape="5.40,81.60 5.40,118.40"/>
        <lane id=":J0_15_3" index="3" speed="13.89" length="36.92" width="3.60" shape="5.40,81.60 4.84,92.55 3.60,100.00 2.36,107.45 1.80,118.40"/>
    </edge>
    <edge id=":J0_19" function="internal">
        <lane id=":J0_19_0" index="0" speed="11.91" length="8.93" width="3.60" shape="1.80,81.60 0.54,90.44"/>
    </edge>
    <edge id=":J0_20" function="internal">
        <lane id=":J0_20_0" index="0" speed="3.87" length="1.74" width="3.60" shape="1.80,81.60 0.90,82.95 0.79,83.00"/>
    </edge>
    <edge id=":J0_32" function="internal">
        <lane id=":J0_32_0" index="0" speed="11.91" length="23.65" width="3.60" shape="0.54,90.44 -3.25,96.75 -9.56,100.54 -18.40,101.80"/>
    </edge>
    <edge id=":J0_33" function="internal">
        <lane id=":J0_33_0" index="0" speed="3.87" length="3.51" width="3.60" shape="0.79,83.00 0.00,83.40 -0.90,82.95 -1.80,81.60"/>
    </edge>
    <edge id=":J0_21" function="internal">
        <lane id=":J0_21_0" index="0" speed="6.65" length="9.35" width="3.60" shape="-18.40,87.40 -15.86,87.04 -14.05,85.95 -12.96,84.14 -12.60,81.60"/>
    </edge>
    <edge id=":J0_22" function="internal">
        <lane id=":J0_22_0" index="0" speed="13.89" length="36.92" width="3.60" shape="-18.40,91.00 -7.45,90.44 0.00,89.20 7.45,87.96 18.40,87.40"/>
        <lane id=":J0_22_1" index="1" speed="13.89" length="36.92" width="3.60" shape="-18.40,91.00 18.40,91.00"/>
        <lane id=":J0_22_2" index="2" speed="13.89" length="36.92" width="3.60" shape="-18.40,94.60 18.40,94.60"/>
        <lane id=":J0_22_3" index="3" speed="13.89" length="36.92" width="3.60" shape="-18.40,94.60 -7.45,95.16 0.00,96.40 7.45,97.64 18.40,98.20"/>
    </edge>
    <edge id=":J0_26" function="internal">
        <lane id=":J0_26_0" index="0" speed="11.91" length="8.93" width="3.60" shape="-18.40,98.20 -9.56,99.46"/>
    </edge>
    <edge id=":J0_27" function="internal">
        <lane id=":J0_27_0" index="0" speed="3.87" length="1.74" width="3.60" shape="-18.40,98.20 -17.05,99.10 -17.00,99.21"/>
    </edge>
    <edge id=":J0_34" function="internal">
        <lane id=":J0_34_0" index="0" speed="11.91" length="23.65" width="3.60" shape="-9.56,99.46 -3.25,103.25 0.54,109.56 1.80,118.40"/>
    </edge>
    <edge id=":J0_35" function="internal">
        <lane id=":J0_35_0" index="0" speed="3.87" length="3.51" width="3.60" shape="-17.00,99.21 -16.60,100.00 -17.05,100.90 -18.40,101.80"/>
    </edge>
    <edge id=":J1_0" function="internal">
        <lane id=":J1_0_0" index="0" speed="6.65" length="9.35" width="3.60" shape="87.40,118.40 87.04,115.86 85.95,114.05 84.14,112.96 81.60,112.60"/>
    </edge>
    <edge id=":J1_1" function="internal">
        <lane id=":J1_1_0" index="0" speed="13.89" length="36.92" width="3.60" shape="91.00,118.40 90.44,107.45 89.20,100.00 87.96,92.55 87.40,81.60"/>
        <lane id=":J1_1_1" index="1" speed="13.89" length="36.92" width="3.60" shape="91.00,118.40 91.00,81.60"/>
        <lane id=":J1_1_2" index="2" speed="13.89" length="36.92" width="3.60" shape="94.60,118.40 94.60,81.60"/>
        <lane id=":J1_1_3" index="3" speed="13.89" length="36.92" width="3.60" shape="94.60,118.40 95.16,107.45 96.40,100.00 97.64,92.55 98.20,81.60"/>
    </edge>
    <edge id=":J1_5" function="internal">
        <lane id=":J1_5_0" index="0" speed="11.91" length="8.93" width="3.60" shape="98.20,118.40 99.46,109.56"/>
    </edge>
    <edge id=":J1_6" function="internal">
        <lane id=":J1_6_0" index="0" speed="3.87" length="1.74" width="3.60" shape="98.20,118.40 99.10,117.05 99.21,117.00"/>
    </edge>
    <edge id=":J1_28" function="internal">
        <lane id=":J1_28_0" index="0" speed="11.91" length="23.65" width="3.60" shape="99.46,109.56 103.25,103.25 109.56,99.46 118.40,98.20"/>
    </edge>
    <edge id=":J1_29" function="internal">
        <lane id=":J1_29_0" index="0" speed="3.87" length="3.51" width="3.60" shape="99.21,117.00 100.00,116.60 100.90,117.05 101.80,118.40"/>
    </edge>
    <edge id=":J1_7" function="internal">
        <lane id=":J1_7_0" index="0" speed="6.65" length="9.35" width="3.60" shape="118.40,112.60 115.86,112.96 114.05,114.05 112.96,115.86 112.60,118.40"/>
    </edge>
    <edge id=":J1_8" function="internal">
        <lane id=":J1_8_0" index="0" speed="13.89" length="36.92" width="3.60" shape="118.40,109.00 107.45,109.56 100.00,110.80 92.55,112.04 81.60,112.60"/>
        <lane id=":J1_8_1" index="1" speed="13.89" length="36.92" width="3.60" shape="118.40,109.00 81.60,109.00"/>
        <lane id=":J1_8_2" index="2" speed="13.89" length="36.92" width="3.60" shape="118.40,105.40 81.60,105.40"/>
        <lane id=":J1_8_3" index="3" speed="13.89" length="36.92" width="3.60" shape="118.40,105.40 107.45,104.84 100.00,103.60 92.55,102.36 81.60,101.80"/>
    </edge>
    <edge id=":J1_12" function="internal">
        <lane id=":J1_12_0" index="0" speed="11.91" length="8.93" width="3.60" shape="118.40,101.80 109.56,100.54"/>
    </edge>
    <edge id=":J1_13" function="internal">
        <lane id=":J1_13_0" index="0" speed="3.87" length="1.74" width="3.60" shape="118.40,101.80 117.05,100.90 117.00,100.79"/>
    </edge>
    <edge id=":J1_30" function="internal">
        <lane id=":J1_30_0" index="0" speed="11.91" length="23.65" width="3.60" shape="109.56,100.54 103.25,96.75 99.46,90.44 98.20,81.60"/>
    </edge>
    <edge id=":J1_31" function="internal">
        <lane id=":J1_31_0" index="0" speed="3.87" length="3.51" width="3.60" shape="117.00,100.79 116.60,100.00 117.05,99.10 118.40,98.20"/>
    </edge>
    <edge id=":J1_14" function="internal">
        <lane id=":J1_14_0" index="0" speed="6.65" length="9.35" width="3.60" shape="112.60,81.60 112.96,84.14 114.05,85.95 115.86,87.04 118.40,87.40"/>
    </edge>
    <edge id=":J1_15" function="internal">
        <lane id=":J1_15_0" index="0" speed="13.89" length="36.92" width="3.60" shape="109.00,81.60 109.56,92.55 110.80,100.00 112.04,107.45 112.60,118.40"/>
        <lane id=":J1_15_1" index="1" speed="13.89" length="36.92" width="3.60" shape="109.00,81.60 109.00,118.40"/>
        <lane id=":J1_15_2" index="2" speed="13.89" length="36.92" width="3.60" shape="105.40,81.60 105.40,118.40"/>
        <lane id=":J1_15_3" index="3" speed="13.89" length="36.92" width="3.60" shape="105.40,81.60 104.84,92.55 103.60,100.00 102.36,107.45 101.80,118.40"/>
    </edge>
    <edge id=":J1_19" function="internal">
        <lane id=":J1_19_0" index="0" speed="11.91" length="8.93" width="3.60" shape="101.80,81.60 100.54,90.44"/>
    </edge>
    <edge id=":J1_20" function="internal">
        <lane id=":J1_20_0" index="0" speed="3.87" length="1.74" width="3.60" shape="101.80,81.60 100.90,82.95 100.79,83.00"/>
    </edge>
    <edge id=":J1_32" function="internal">
        <lane id=":J1_32_0" index="0" speed="11.91" length="23.65" width="3.60" shape="100.54,90.44 96.75,96.75 90.44,100.54 81.60,101.80"/>
    </edge>
    <edge id=":J1_33" function="internal">
        <lane id=":J1_33_0" index="0" speed="3.87" length="3.51" width="3.60" shape="100.79,83.00 100.00,83.40 99.10,82.95 98.20,81.60"/>
    </edge>
    <edge id=":J1_21" function="internal">
        <lane id=":J1_21_0" index="0" speed="6.65" length="9.35" width="3.60" shape="81.60,87.40 84.14,87.04 85.95,85.95 87.04,84.14 87.40,81.60"/>
    </edge>
    <edge id=":J1_22" function="internal">
        <lane id=":J1_22_0" index="0" speed="13.89" length="36.92" width="3.60" shape="81.60,91.00 92.55,90.44 100.00,89.20 107.45,87.96 118.40,87.40"/>
        <lane id=":J1_22_1" index="1" speed="13.89" length="36.92" width="3.60" shape="81.60,91.00 118.40,91.00"/>
        <lane id=":J1_22_2" index="2" speed="13.89" length="36.92" width="3.60" shape="81.60,94.60 118.40,94.60"/>
        <lane id=":J1_22_3" index="3" speed="13.89" length="36.92" width="3.60" shape="81.60,94.60 92.55,95.16 100.00,96.40 107.45,97.64 118.40,98.20"/>
    </edge>
    <edge id=":J1_26" function="internal">
        <lane id=":J1_26_0" index="0" speed="11.91" length="8.93" width="3.60" shape="81.60,98.20 90.44,99.46"/>
    </edge>
    <edge id=":J1_27" function="internal">
        <lane id=":J1_27_0" index="0" speed="3.87" length="1.74" width="3.60" shape="81.60,98.20 82.95,99.10 83.00,99.21"/>
    </edge>
    <edge id=":J1_34" function="internal">
        <lane id=":J1_34_0" index="0" speed="11.91" length="23.65" width="3.60" shape="90.44,99.46 96.75,103.25 100.54,109.56 101.80,118.40"/>
    </edge>
    <edge id=":J1_35" function="internal">
        <lane id=":J1_35_0" index="0" speed="3.87" length="3.51" width="3.60" shape="83.00,99.21 83.40,100.00 82.95,100.90 81.60,101.80"/>
    </edge>
    <edge id=":J11_0" function="internal">
        <lane id=":J11_0_0" index="0" speed="6.65" length="9.35" width="3.60" shape="-112.60,318.40 -112.96,315.86 -114.05,314.05 -115.86,312.96 -118.40,312.60"/>
    </edge>
    <edge id=":J11_1" function="internal">
        <lane id=":J11_1_0" index="0" speed="13.89" length="36.92" width="3.60" shape="-109.00,318.40 -109.56,307.45 -110.80,300.00 -112.04,292.55 -112.60,281.60"/>
        <lane id=":J11_1_1" index="1" speed="13.89" length="36.92" width="3.60" shape="-109.00,318.40 -109.00,281.60"/>
        <lane id=":J11_1_2" index="2" speed="13.89" length="36.92" width="3.60" shape="-105.40,318.40 -105.40,281.60"/>
        <lane id=":J11_1_3" index="3" speed="13.89" length="36.92" width="3.60" shape="-105.40,318.40 -104.84,307.45 -103.60,300.00 -102.36,292.55 -101.80,281.60"/>
    </edge>
    <edge id=":J11_5" function="internal">
        <lane id=":J11_5_0" index="0" speed="11.91" length="8.93" width="3.60" shape="-101.80,318.40 -100.54,309.56"/>
    </edge>
    <edge id=":J11_6" function="internal">
        <lane id=":J11_6_0" index="0" speed="3.87" length="1.74" width="3.60" shape="-101.80,318.40 -100.90,317.05 -100.79,317.00"/>
    </edge>
    <edge id=":J11_28" function="internal">
        <lane id=":J11_28_0" index="0" speed="11.91" length="23.65" width="3.60" shape="-100.54,309.56 -96.75,303.25 -90.44,299.46 -81.60,298.20"/>
    </edge>
    <edge id=":J11_29" function="internal">
        <lane id=":J11_29_0" index="0" speed="3.87" length="3.51" width="3.60" shape="-100.79,317.00 -100.00,316.60 -99.10,317.05 -98.20,318.40"/>
    </edge>
    <edge id=":J11_7" function="internal">
        <lane id=":J11_7_0" index="0" speed="6.65" length="9.35" width="3.60" shape="-81.60,312.60 -84.14,312.96 -85.95,314.05 -87.04,315.86 -87.40,318.40"/>
    </edge>
    <edge id=":J11_8" function="internal">
        <lane id=":J11_8_0" index="0" speed="13.89" length="36.92" width="3.60" shape="-81.60,309.00 -92.55,309.56 -100.00,310.80 -107.45,312.04 -118.40,312.60"/>
        <lane id=":J11_8_1" index="1" speed="13.89" length="36.92" width="3.60" shape="-81.60,309.00 -118.40,309.00"/>
        <lane id=":J11_8_2" index="2" speed="13.89" length="36.92" width="3.60" shape="-81.60,305.40 -118.40,305.40"/>
        <lane id=":J11_8_3" index="3" speed="13.89" length="36.92" width="3.60" shape="-81.60,305.40 -92.55,304.84 -100.00,303.60 -107.45,302.36 -118.40,301.80"/>
    </edge>
    <edge id=":J11_12" function="internal">
        <lane id=":J11_12_0" index="0" speed="11.91" length="8.93" width="3.60" shape="-81.60,301.80 -90.44,300.54"/>
    </edge>
    <edge id=":J11_13" function="internal">
        <lane id=":J11_13_0" index="0" speed="3.87" length="1.74" width="3.60" shape="-81.60,301.80 -82.95,300.90 -83.00,300.79"/>
    </edge>
    <edge id=":J11_30" function="internal">
        <lane id=":J11_30_0" index="0" speed="11.91" length="23.65" width="3.60" shape="-90.44,300.54 -96.75,296.75 -100.54,290.44 -101.80,281.60"/>
    </edge>
    <edge id=":J11_31" function="internal">
        <lane id=":J11_31_0" index="0" speed="3.87" length="3.51" width="3.60" shape="-83.00,300.79 -83.40,300.00 -82.95,299.10 -81.60,298.20"/>
    </edge>
    <edge id=":J11_14" function="internal">
        <lane id=":J11_14_0" index="0" speed="6.65" length="9.35" width="3.60" shape="-87.40,281.60 -87.04,284.14 -85.95,285.95 -84.14,287.04 -81.60,287.40"/>
    </edge>
    <edge id=":J11_15" function="internal">
        <lane id=":J11_15_0" index="0" speed="13.89" length="36.92" width="3.60" shape="-91.00,281.60 -90.44,292.55 -89.20,300.00 -87.96,307.45 -87.40,318.40"/>
        <lane id=":J11_15_1" index="1" speed="13.89" length="36.92" width="3.60" shape="-91.00,281.60 -91.00,318.40"/>
        <lane id=":J11_15_2" index="2" speed="13.89" length="36.92" width="3.60" shape="-94.60,281.60 -94.60,318.40"/>
        <lane id=":J11_15_3" index="3" speed="13.89" length="36.92" width="3.60" shape="-94.60,281.60 -95.16,292.55 -96.40,300.00 -97.64,307.45 -98.20,318.40"/>
    </edge>
    <edge id=":J11_19" function="internal">
        <lane id=":J11_19_0" index="0" speed="11.91" length="8.93" width="3.60" shape="-98.20,281.60 -99.46,290.44"/>
    </edge>
    <edge id=":J11_20" function="internal">
        <lane id=":J11_20_0" index="0" speed="3.87" length="1.74" width="3.60" shape="-98.20,281.60 -99.10,282.95 -99.21,283.00"/>
    </edge>
    <edge id=":J11_32" function="internal">
        <lane id=":J11_32_0" index="0" speed="11.91" length="23.65" width="3.60" shape="-99.46,290.44 -103.25,296.75 -109.56,300.54 -118.40,301.80"/>
    </edge>
    <edge id=":J11_33" function="internal">
        <lane id=":J11_33_0" index="0" speed="3.87" length="3.51" width="3.60" shape="-99.21,283.00 -100.00,283.40 -100.90,282.95 -101.80,281.60"/>
    </edge>
    <edge id=":J11_21" function="internal">
        <lane id=":J11_21_0" index="0" speed="6.65" length="9.35" width="3.60" shape="-118.40,287.40 -115.86,287.04 -114.05,285.95 -112.96,284.14 -112.60,281.60"/>
    </edge>
    <edge id=":J11_22" function="internal">
        <lane id=":J11_22_0" index="0" speed="13.89" length="36.92" width="3.60" shape="-118.40,291.00 -107.45,290.44 -100.00,289.20 -92.55,287.96 -81.60,287.40"/>
        <lane id=":J11_22_1" index="1" speed="13.89" length="36.92" width="3.60" shape="-118.40,291.00 -81.60,291.00"/>
        <lane id=":J11_22_2" index="2" speed="13.89" length="36.92" width="3.60" shape="-118.40,294.60 -81.60,294.60"/>
        <lane id=":J11_22_3" index="3" speed="13.89" length="36.92" width="3.60" shape="-118.40,294.60 -107.45,295.16 -100.00,296.40 -92.55,297.64 -81.60,298.20"/>
    </edge>
    <edge id=":J11_26" function="internal">
        <lane id=":J11_26_0" index="0" speed="11.91" length="8.93" width="3.60" shape="-118.40,298.20 -109.56,299.46"/>
    </edge>
    <edge id=":J11_27" function="internal">
        <lane id=":J11_27_0" index="0" speed="3.87" length="1.74" width="3.60" shape="-118.40,298.20 -117.05,299.10 -117.00,299.21"/>
    </edge>
    <edge id=":J11_34" function="internal">
        <lane id=":J11_34_0" index="0" speed="11.91" length="23.65" width="3.60" shape="-109.56,299.46 -103.25,303.25 -99.46,309.56 -98.20,318.40"/>
    </edge>
    <edge id=":J11_35" function="internal">
        <lane id=":J11_35_0" index="0" speed="3.87" length="3.51" width="3.60" shape="-117.00,299.21 -116.60,300.00 -117.05,300.90 -118.40,301.80"/>
    </edge>
    <edge id=":J12_0" function="internal">
        <lane id=":J12_0_0" index="0" speed="6.65" length="9.35" width="3.60" shape="-12.60,318.40 -12.96,315.86 -14.05,314.05 -15.86,312.96 -18.40,312.60"/>
    </edge>
    <edge id=":J12_1" function="internal">
        <lane id=":J12_1_0" index="0" speed="13.89" length="36.92" width="3.60" shape="-9.00,318.40 -9.56,307.45 -10.80,300.00 -12.04,292.55 -12.60,281.60"/>
        <lane id=":J12_1_1" index="1" speed="13.89" length="36.92" width="3.60" shape="-9.00,318.40 -9.00,281.60"/>
        <lane id=":J12_1_2" index="2" speed="13.89" length="36.92" width="3.60" shape="-5.40,318.40 -5.40,281.60"/>
        <lane id=":J12_1_3" index="3" speed="13.89" length="36.92" width="3.60" shape="-5.40,318.40 -4.84,307.45 -3.60,300.00 -2.36,292.55 -1.80,281.60"/>
    </edge>
    <edge id=":J12_5" function="internal">
        <lane id=":J12_5_0" index="0" speed="11.91" length="6.43" width="3.60" shape="-1.80,318.40 -0.89,312.04"/>
    </edge>
    <edge id=":J12_6" function="internal">
        <lane id=":J12_6_0" index="0" speed="3.87" length="1.62" width="3.60" shape="-1.80,318.40 -0.90,317.05"/>
    </edge>
    <edge id=":J12_27" function="internal">
        <lane id=":J12_27_0" index="0" speed="11.91" length="26.15" width="3.60" shape="-0.89,312.04 -0.54,309.56 3.25,303.25 9.56,299.46 18.40,298.20"/>
    </edge>
    <edge id=":J12_28" function="internal">
        <lane id=":J12_28_0" index="0" speed="3.87" length="3.63" width="3.60" shape="-0.90,317.05 0.00,316.60 0.90,317.05 1.80,318.40"/>
    </edge>
    <edge id=":J12_7" function="internal">
        <lane id=":J12_7_0" index="0" speed="6.65" length="9.35" width="3.60" shape="18.40,312.60 15.86,312.96 14.05,314.05 12.96,315.86 12.60,318.40"/>
    </edge>
    <edge id=":J12_8" function="internal">
        <lane id=":J12_8_0" index="0" speed="13.89" length="36.92" width="3.60" shape="18.40,309.00 7.45,309.56 0.00,310.80 -7.45,312.04 -18.40,312.60"/>
        <lane id=":J12_8_1" index="1" speed="13.89" length="36.92" width="3.60" shape="18.40,309.00 -18.40,309.00"/>
        <lane id=":J12_8_2" index="2" speed="13.89" length="36.92" width="3.60" shape="18.40,305.40 -18.40,305.40"/>
        <lane id=":J12_8_3" index="3" speed="13.89" length="36.92" width="3.60" shape="18.40,305.40 7.45,304.84 -0.00,303.60 -7.45,302.36 -18.40,301.80"/>
    </edge>
    <edge id=":J12_12" function="internal">
        <lane id=":J12_12_0" index="0" speed="11.91" length="8.93" width="3.60" shape="18.40,301.80 9.56,300.54"/>
    </edge>
    <edge id=":J12_13" function="internal">
        <lane id=":J12_13_0" index="0" speed="3.87" length="1.74" width="3.60" shape="18.40,301.80 17.05,300.90 17.00,300.79"/>
    </edge>
    <edge id=":J12_29" function="internal">
        <lane id=":J12_29_0" index="0" speed="11.91" length="23.65" width="3.60" shape="9.56,300.54 3.25,296.75 -0.54,290.44 -1.80,281.60"/>
    </edge>
    <edge id=":J12_30" function="internal">
        <lane id=":J12_30_0" index="0" speed="3.87" length="3.51" width="3.60" shape="17.00,300.79 16.60,300.00 17.05,299.10 18.40,298.20"/>
    </edge>
    <edge id=":J12_14" function="internal">
        <lane id=":J12_14_0" index="0" speed="6.65" length="9.35" width="3.60" shape="12.60,281.60 12.96,284.14 14.05,285.95 15.86,287.04 18.40,287.40"/>
    </edge>
    <edge id=":J12_15" function="internal">
        <lane id=":J12_15_0" index="0" speed="13.89" length="36.80" width="3.60" shape="12.60,281.60 12.60,318.40"/>
        <lane id=":J12_15_1" index="1" speed="13.89" length="36.80" width="3.60" shape="9.00,281.60 9.00,318.40"/>
        <lane id=":J12_15_2" index="2" speed="13.89" length="36.80" width="3.60" shape="5.40,281.60 5.40,318.40"/>
        <lane id=":J12_15_3" index="3" speed="13.89" length="36.80" width="3.60" shape="1.80,281.60 1.80,318.40"/>
    </edge>
    <edge id=":J12_19" function="internal">
        <lane id=":J12_19_0" index="0" speed="11.91" length="8.93" width="3.60" shape="1.80,281.60 0.54,290.44"/>
    </edge>
    <edge id=":J12_31" function="internal">
        <lane id=":J12_31_0" index="0" speed="11.91" length="23.65" width="3.60" shape="0.54,290.44 -3.25,296.75 -9.56,300.54 -18.40,301.80"/>
    </edge>
    <edge id=":J12_20" function="internal">
        <lane id=":J12_20_0" index="0" speed="6.65" length="9.35" width="3.60" shape="-18.40,287.40 -15.86,287.04 -14.05,285.95 -12.96,284.14 -12.60,281.60"/>
    </edge>
    <edge id=":J12_21" function="internal">
        <lane id=":J12_21_0" index="0" speed="13.89" length="36.92" width="3.60" shape="-18.40,291.00 -7.45,290.44 0.00,289.20 7.45,287.96 18.40,287.40"/>
        <lane id=":J12_21_1" index="1" speed="13.89" length="36.92" width="3.60" shape="-18.40,291.00 18.40,291.00"/>
        <lane id=":J12_21_2" index="2" speed="13.89" length="36.92" width="3.60" shape="-18.40,294.60 18.40,294.60"/>
        <lane id=":J12_21_3" index="3" speed="13.89" length="36.92" width="3.60" shape="-18.40,294.60 -7.45,295.16 0.00,296.40 7.45,297.64 18.40,298.20"/>
    </edge>
    <edge id=":J12_25" function="internal">
        <lane id=":J12_25_0" index="0" speed="11.91" length="8.93" width="3.60" shape="-18.40,298.20 -9.56,299.46"/>
    </edge>
    <edge id=":J12_26" function="internal">
        <lane id=":J12_26_0" index="0" speed="3.87" length="1.74" width="3.60" shape="-18.40,298.20 -17.05,299.10 -17.00,299.21"/>
    </edge>
    <edge id=":J12_32" function="internal">
        <lane id=":J12_32_0" index="0" speed="11.91" length="23.65" width="3.60" shape="-9.56,299.46 -3.25,303.25 0.54,309.56 1.80,318.40"/>
    </edge>
    <edge id=":J12_33" function="internal">
        <lane id=":J12_33_0" index="0" speed="3.87" length="3.51" width="3.60" shape="-17.00,299.21 -16.60,300.00 -17.05,300.90 -18.40,301.80"/>
    </edge>
    <edge id=":J13_0" function="internal">
        <lane id=":J13_0_0" index="0" speed="6.65" length="9.35" width="3.60" shape="87.40,318.40 87.04,315.86 85.95,314.05 84.14,312.96 81.60,312.60"/>
    </edge>
    <edge id=":J13_1" function="internal">
        <lane id=":J13_1_0" index="0" speed="13.89" length="36.92" width="3.60" shape="91.00,318.40 90.44,307.45 89.20,300.00 87.96,292.55 87.40,281.60"/>
        <lane id=":J13_1_1" index="1" speed="13.89" length="36.92" width="3.60" shape="91.00,318.40 91.00,281.60"/>
        <lane id=":J13_1_2" index="2" speed="13.89" length="36.92" width="3.60" shape="94.60,318.40 94.60,281.60"/>
        <lane id=":J13_1_3" index="3" speed="13.89" length="36.92" width="3.60" shape="94.60,318.40 95.16,307.45 96.40,300.00 97.64,292.55 98.20,281.60"/>
    </edge>
    <edge id=":J13_5" function="internal">
        <lane id=":J13_5_0" index="0" speed="11.91" length="8.93" width="3.60" shape="98.20,318.40 99.46,309.56"/>
    </edge>
    <edge id=":J13_6" function="internal">
        <lane id=":J13_6_0" index="0" speed="3.87" length="1.74" width="3.60" shape="98.20,318.40 99.10,317.05 99.21,317.00"/>
    </edge>
    <edge id=":J13_27" function="internal">
        <lane id=":J13_27_0" index="0" speed="11.91" length="23.65" width="3.60" shape="99.46,309.56 103.25,303.25 109.56,299.46 118.40,298.20"/>
    </edge>
    <edge id=":J13_28" function="internal">
        <lane id=":J13_28_0" index="0" speed="3.87" length="3.51" width="3.60" shape="99.21,317.00 100.00,316.60 100.90,317.05 101.80,318.40"/>
    </edge>
    <edge id=":J13_7" function="internal">
        <lane id=":J13_7_0" index="0" speed="6.65" length="9.35" width="3.60" shape="118.40,312.60 115.86,312.96 114.05,314.05 112.96,315.86 112.60,318.40"/>
    </edge>
    <edge id=":J13_8" function="internal">
        <lane id=":J13_8_0" index="0" speed="13.89" length="36.92" width="3.60" shape="118.40,309.00 107.45,309.56 100.00,310.80 92.55,312.04 81.60,312.60"/>
        <lane id=":J13_8_1" index="1" speed="13.89" length="36.92" width="3.60" shape="118.40,309.00 81.60,309.00"/>
        <lane id=":J13_8_2" index="2" speed="13.89" length="36.92" width="3.60" shape="118.40,305.40 81.60,305.40"/>
        <lane id=":J13_8_3" index="3" speed="13.89" length="36.92" width="3.60" shape="118.40,305.40 107.45,304.84 100.00,303.60 92.55,302.36 81.60,301.80"/>
    </edge>
    <edge id=":J13_12" function="internal">
        <lane id=":J13_12_0" index="0" speed="11.91" length="8.93" width="3.60" shape="118.40,301.80 109.56,300.54"/>
    </edge>
    <edge id=":J13_13" function="internal">
        <lane id=":J13_13_0" index="0" speed="3.87" length="1.74" width="3.60" shape="118.40,301.80 117.05,300.90 117.00,300.79"/>
    </edge>
    <edge id=":J13_29" function="internal">
        <lane id=":J13_29_0" index="0" speed="11.91" length="23.65" width="3.60" shape="109.56,300.54 103.25,296.75 99.46,290.44 98.20,281.60"/>
    </edge>
    <edge id=":J13_30" function="internal">
        <lane id=":J13_30_0" index="0" speed="3.87" length="3.51" width="3.60" shape="117.00,300.79 116.60,300.00 117.05,299.10 118.40,298.20"/>
    </edge>
    <edge id=":J13_14" function="internal">
        <lane id=":J13_14_0" index="0" speed="6.65" length="9.35" width="3.60" shape="112.60,281.60 112.96,284.14 114.05,285.95 115.86,287.04 118.40,287.40"/>
    </edge>
    <edge id=":J13_15" function="internal">
        <lane id=":J13_15_0" index="0" speed="13.89" length="36.92" width="3.60" shape="109.00,281.60 109.56,292.55 110.80,300.00 112.04,307.45 112.60,318.40"/>
        <lane id=":J13_15_1" index="1" speed="13.89" length="36.92" width="3.60" shape="109.00,281.60 109.00,318.40"/>
        <lane id=":J13_15_2" index="2" speed="13.89" length="36.92" width="3.60" shape="105.40,281.60 105.40,318.40"/>