<?xml version="1.0" encoding="UTF-8"?>

<!-- generated on 2022-11-01 11:59:33 by Eclipse SUMO netedit Version 1.14.1
<configuration xmlns:xsi="http://www.w3.org/2001/XMLSchema-instance" xsi:noNamespaceSchemaLocation="http://sumo.dlr.de/xsd/netconvertConfiguration.xsd">

    <input>
        <sumo-net-file value="C:\Users\connp\OneDrive\Documents\_Pitt\CS1980-Team_Project\team-project\3x3Grid\network.net.xml"/>
    </input>

    <output>
        <output-file value="C:\Users\connp\OneDrive\Documents\_Pitt\CS1980-Team_Project\team-project\3x3Grid\network.net.xml"/>
    </output>

    <processing>
        <geometry.min-radius.fix.railways value="false"/>
        <geometry.max-grade.fix value="false"/>
        <offset.disable-normalization value="true"/>
        <lefthand value="false"/>
    </processing>

    <junctions>
        <no-turnarounds value="true"/>
        <junctions.corner-detail value="5"/>
        <junctions.limit-turn-speed value="5.5"/>
        <rectangular-lane-cut value="false"/>
    </junctions>

    <pedestrian>
        <walkingareas value="false"/>
    </pedestrian>

</configuration>
-->

<net version="1.9" junctionCornerDetail="5" limitTurnSpeed="5.50" xmlns:xsi="http://www.w3.org/2001/XMLSchema-instance" xsi:noNamespaceSchemaLocation="http://sumo.dlr.de/xsd/net_file.xsd">

    <location netOffset="0.00,0.00" convBoundary="-200.00,0.00,200.00,400.00" origBoundary="-10000000000.00,-10000000000.00,10000000000.00,10000000000.00" projParameter="!"/>

    <edge id=":J0_0" function="internal">
        <lane id=":J0_0_0" index="0" speed="6.51" length="9.03" shape="-11.20,116.80 -11.55,114.35 -12.60,112.60 -14.35,111.55 -16.80,111.20"/>
    </edge>
    <edge id=":J0_1" function="internal">
        <lane id=":J0_1_0" index="0" speed="13.89" length="33.70" shape="-8.00,116.80 -8.50,106.80 -9.60,100.00 -10.70,93.20 -11.20,83.20"/>
        <lane id=":J0_1_1" index="1" speed="13.89" length="33.70" shape="-8.00,116.80 -8.00,83.20"/>
        <lane id=":J0_1_2" index="2" speed="13.89" length="33.70" shape="-4.80,116.80 -4.80,83.20"/>
        <lane id=":J0_1_3" index="3" speed="13.89" length="33.70" shape="-4.80,116.80 -4.30,106.80 -3.20,100.00 -2.10,93.20 -1.60,83.20"/>
    </edge>
    <edge id=":J0_5" function="internal">
        <lane id=":J0_5_0" index="0" speed="11.36" length="7.62" shape="-1.60,116.80 -0.52,109.25"/>
    </edge>
    <edge id=":J0_6" function="internal">
        <lane id=":J0_6_0" index="0" speed="3.65" length="1.44" shape="-1.60,116.80 -0.80,115.60"/>
    </edge>
    <edge id=":J0_28" function="internal">
        <lane id=":J0_28_0" index="0" speed="11.36" length="22.05" shape="-0.52,109.25 -0.45,108.75 3.00,103.00 8.75,99.55 16.80,98.40"/>
    </edge>
    <edge id=":J0_29" function="internal">
        <lane id=":J0_29_0" index="0" speed="3.65" length="3.23" shape="-0.80,115.60 0.00,115.20 0.80,115.60 1.60,116.80"/>
    </edge>
    <edge id=":J0_7" function="internal">
        <lane id=":J0_7_0" index="0" speed="6.51" length="9.03" shape="16.80,111.20 14.35,111.55 12.60,112.60 11.55,114.35 11.20,116.80"/>
    </edge>
    <edge id=":J0_8" function="internal">
        <lane id=":J0_8_0" index="0" speed="13.89" length="33.70" shape="16.80,108.00 6.80,108.50 0.00,109.60 -6.80,110.70 -16.80,111.20"/>
        <lane id=":J0_8_1" index="1" speed="13.89" length="33.70" shape="16.80,108.00 -16.80,108.00"/>
        <lane id=":J0_8_2" index="2" speed="13.89" length="33.70" shape="16.80,104.80 -16.80,104.80"/>
        <lane id=":J0_8_3" index="3" speed="13.89" length="33.70" shape="16.80,104.80 6.80,104.30 0.00,103.20 -6.80,102.10 -16.80,101.60"/>
    </edge>
    <edge id=":J0_12" function="internal">
        <lane id=":J0_12_0" index="0" speed="11.36" length="7.62" shape="16.80,101.60 9.25,100.52"/>
    </edge>
    <edge id=":J0_13" function="internal">
        <lane id=":J0_13_0" index="0" speed="3.65" length="1.44" shape="16.80,101.60 15.60,100.80"/>
    </edge>
    <edge id=":J0_30" function="internal">
        <lane id=":J0_30_0" index="0" speed="11.36" length="22.05" shape="9.25,100.52 8.75,100.45 3.00,97.00 -0.45,91.25 -1.60,83.20"/>
    </edge>
    <edge id=":J0_31" function="internal">
        <lane id=":J0_31_0" index="0" speed="3.65" length="3.23" shape="15.60,100.80 15.20,100.00 15.60,99.20 16.80,98.40"/>
    </edge>
    <edge id=":J0_14" function="internal">
        <lane id=":J0_14_0" index="0" speed="6.51" length="9.03" shape="11.20,83.20 11.55,85.65 12.60,87.40 14.35,88.45 16.80,88.80"/>
    </edge>
    <edge id=":J0_15" function="internal">
        <lane id=":J0_15_0" index="0" speed="13.89" length="33.70" shape="8.00,83.20 8.50,93.20 9.60,100.00 10.70,106.80 11.20,116.80"/>
        <lane id=":J0_15_1" index="1" speed="13.89" length="33.70" shape="8.00,83.20 8.00,116.80"/>
        <lane id=":J0_15_2" index="2" speed="13.89" length="33.70" shape="4.80,83.20 4.80,116.80"/>
        <lane id=":J0_15_3" index="3" speed="13.89" length="33.70" shape="4.80,83.20 4.30,93.20 3.20,100.00 2.10,106.80 1.60,116.80"/>
    </edge>
    <edge id=":J0_19" function="internal">
        <lane id=":J0_19_0" index="0" speed="11.36" length="7.62" shape="1.60,83.20 0.52,90.75"/>
    </edge>
    <edge id=":J0_20" function="internal">
        <lane id=":J0_20_0" index="0" speed="3.65" length="1.44" shape="1.60,83.20 0.80,84.40"/>
    </edge>
    <edge id=":J0_32" function="internal">
        <lane id=":J0_32_0" index="0" speed="11.36" length="22.05" shape="0.52,90.75 0.45,91.25 -3.00,97.00 -8.75,100.45 -16.80,101.60"/>
    </edge>
    <edge id=":J0_33" function="internal">
        <lane id=":J0_33_0" index="0" speed="3.65" length="3.23" shape="0.80,84.40 0.00,84.80 -0.80,84.40 -1.60,83.20"/>
    </edge>
    <edge id=":J0_21" function="internal">
        <lane id=":J0_21_0" index="0" speed="6.51" length="9.03" shape="-16.80,88.80 -14.35,88.45 -12.60,87.40 -11.55,85.65 -11.20,83.20"/>
    </edge>
    <edge id=":J0_22" function="internal">
        <lane id=":J0_22_0" index="0" speed="13.89" length="33.70" shape="-16.80,92.00 -6.80,91.50 -0.00,90.40 6.80,89.30 16.80,88.80"/>
        <lane id=":J0_22_1" index="1" speed="13.89" length="33.70" shape="-16.80,92.00 16.80,92.00"/>
        <lane id=":J0_22_2" index="2" speed="13.89" length="33.70" shape="-16.80,95.20 16.80,95.20"/>
        <lane id=":J0_22_3" index="3" speed="13.89" length="33.70" shape="-16.80,95.20 -6.80,95.70 -0.00,96.80 6.80,97.90 16.80,98.40"/>
    </edge>
    <edge id=":J0_26" function="internal">
        <lane id=":J0_26_0" index="0" speed="11.36" length="7.62" shape="-16.80,98.40 -9.25,99.48"/>
    </edge>
    <edge id=":J0_27" function="internal">
        <lane id=":J0_27_0" index="0" speed="3.65" length="1.44" shape="-16.80,98.40 -15.60,99.20"/>
    </edge>
    <edge id=":J0_34" function="internal">
        <lane id=":J0_34_0" index="0" speed="11.36" length="22.05" shape="-9.25,99.48 -8.75,99.55 -3.00,103.00 0.45,108.75 1.60,116.80"/>
    </edge>
    <edge id=":J0_35" function="internal">
        <lane id=":J0_35_0" index="0" speed="3.65" length="3.23" shape="-15.60,99.20 -15.20,100.00 -15.60,100.80 -16.80,101.60"/>
    </edge>
    <edge id=":J1_0" function="internal">
        <lane id=":J1_0_0" index="0" speed="6.51" length="9.03" shape="88.80,116.80 88.45,114.35 87.40,112.60 85.65,111.55 83.20,111.20"/>
    </edge>
    <edge id=":J1_1" function="internal">
        <lane id=":J1_1_0" index="0" speed="13.89" length="33.70" shape="92.00,116.80 91.50,106.80 90.40,100.00 89.30,93.20 88.80,83.20"/>
        <lane id=":J1_1_1" index="1" speed="13.89" length="33.70" shape="92.00,116.80 92.00,83.20"/>
        <lane id=":J1_1_2" index="2" speed="13.89" length="33.70" shape="95.20,116.80 95.20,83.20"/>
        <lane id=":J1_1_3" index="3" speed="13.89" length="33.70" shape="95.20,116.80 95.70,106.80 96.80,100.00 97.90,93.20 98.40,83.20"/>
    </edge>
    <edge id=":J1_5" function="internal">
        <lane id=":J1_5_0" index="0" speed="11.36" length="7.62" shape="98.40,116.80 99.48,109.25"/>
    </edge>
    <edge id=":J1_6" function="internal">
        <lane id=":J1_6_0" index="0" speed="3.65" length="1.44" shape="98.40,116.80 99.20,115.60"/>
    </edge>
    <edge id=":J1_28" function="internal">
        <lane id=":J1_28_0" index="0" speed="11.36" length="22.05" shape="99.48,109.25 99.55,108.75 103.00,103.00 108.75,99.55 116.80,98.40"/>
    </edge>
    <edge id=":J1_29" function="internal">
        <lane id=":J1_29_0" index="0" speed="3.65" length="3.23" shape="99.20,115.60 100.00,115.20 100.80,115.60 101.60,116.80"/>
    </edge>
    <edge id=":J1_7" function="internal">
        <lane id=":J1_7_0" index="0" speed="6.51" length="9.03" shape="116.80,111.20 114.35,111.55 112.60,112.60 111.55,114.35 111.20,116.80"/>
    </edge>
    <edge id=":J1_8" function="internal">
        <lane id=":J1_8_0" index="0" speed="13.89" length="33.70" shape="116.80,108.00 106.80,108.50 100.00,109.60 93.20,110.70 83.20,111.20"/>
        <lane id=":J1_8_1" index="1" speed="13.89" length="33.70" shape="116.80,108.00 83.20,108.00"/>
        <lane id=":J1_8_2" index="2" speed="13.89" length="33.70" shape="116.80,104.80 83.20,104.80"/>
        <lane id=":J1_8_3" index="3" speed="13.89" length="33.70" shape="116.80,104.80 106.80,104.30 100.00,103.20 93.20,102.10 83.20,101.60"/>
    </edge>
    <edge id=":J1_12" function="internal">
        <lane id=":J1_12_0" index="0" speed="11.36" length="7.62" shape="116.80,101.60 109.25,100.52"/>
    </edge>
    <edge id=":J1_13" function="internal">
        <lane id=":J1_13_0" index="0" speed="3.65" length="1.44" shape="116.80,101.60 115.60,100.80"/>
    </edge>
    <edge id=":J1_30" function="internal">
        <lane id=":J1_30_0" index="0" speed="11.36" length="22.05" shape="109.25,100.52 108.75,100.45 103.00,97.00 99.55,91.25 98.40,83.20"/>
    </edge>
    <edge id=":J1_31" function="internal">
        <lane id=":J1_31_0" index="0" speed="3.65" length="3.23" shape="115.60,100.80 115.20,100.00 115.60,99.20 116.80,98.40"/>
    </edge>
    <edge id=":J1_14" function="internal">
        <lane id=":J1_14_0" index="0" speed="6.51" length="9.03" shape="111.20,83.20 111.55,85.65 112.60,87.40 114.35,88.45 116.80,88.80"/>
    </edge>
    <edge id=":J1_15" function="internal">
        <lane id=":J1_15_0" index="0" speed="13.89" length="33.70" shape="108.00,83.20 108.50,93.20 109.60,100.00 110.70,106.80 111.20,116.80"/>
        <lane id=":J1_15_1" index="1" speed="13.89" length="33.70" shape="108.00,83.20 108.00,116.80"/>
        <lane id=":J1_15_2" index="2" speed="13.89" length="33.70" shape="104.80,83.20 104.80,116.80"/>
        <lane id=":J1_15_3" index="3" speed="13.89" length="33.70" shape="104.80,83.20 104.30,93.20 103.20,100.00 102.10,106.80 101.60,116.80"/>
    </edge>
    <edge id=":J1_19" function="internal">
        <lane id=":J1_19_0" index="0" speed="11.36" length="7.62" shape="101.60,83.20 100.52,90.75"/>
    </edge>
    <edge id=":J1_20" function="internal">
        <lane id=":J1_20_0" index="0" speed="3.65" length="1.44" shape="101.60,83.20 100.80,84.40"/>
    </edge>
    <edge id=":J1_32" function="internal">
        <lane id=":J1_32_0" index="0" speed="11.36" length="22.05" shape="100.52,90.75 100.45,91.25 97.00,97.00 91.25,100.45 83.20,101.60"/>
    </edge>
    <edge id=":J1_33" function="internal">
        <lane id=":J1_33_0" index="0" speed="3.65" length="3.23" shape="100.80,84.40 100.00,84.80 99.20,84.40 98.40,83.20"/>
    </edge>
    <edge id=":J1_21" function="internal">
        <lane id=":J1_21_0" index="0" speed="6.51" length="9.03" shape="83.20,88.80 85.65,88.45 87.40,87.40 88.45,85.65 88.80,83.20"/>
    </edge>
    <edge id=":J1_22" function="internal">
        <lane id=":J1_22_0" index="0" speed="13.89" length="33.70" shape="83.20,92.00 93.20,91.50 100.00,90.40 106.80,89.30 116.80,88.80"/>
        <lane id=":J1_22_1" index="1" speed="13.89" length="33.70" shape="83.20,92.00 116.80,92.00"/>
        <lane id=":J1_22_2" index="2" speed="13.89" length="33.70" shape="83.20,95.20 116.80,95.20"/>
        <lane id=":J1_22_3" index="3" speed="13.89" length="33.70" shape="83.20,95.20 93.20,95.70 100.00,96.80 106.80,97.90 116.80,98.40"/>
    </edge>
    <edge id=":J1_26" function="internal">
        <lane id=":J1_26_0" index="0" speed="11.36" length="7.62" shape="83.20,98.40 90.75,99.48"/>
    </edge>
    <edge id=":J1_27" function="internal">
        <lane id=":J1_27_0" index="0" speed="3.65" length="1.44" shape="83.20,98.40 84.40,99.20"/>
    </edge>
    <edge id=":J1_34" function="internal">
        <lane id=":J1_34_0" index="0" speed="11.36" length="22.05" shape="90.75,99.48 91.25,99.55 97.00,103.00 100.45,108.75 101.60,116.80"/>
    </edge>
    <edge id=":J1_35" function="internal">
        <lane id=":J1_35_0" index="0" speed="3.65" length="3.23" shape="84.40,99.20 84.80,100.00 84.40,100.80 83.20,101.60"/>
    </edge>
    <edge id=":J11_0" function="internal">
        <lane id=":J11_0_0" index="0" speed="6.51" length="9.03" shape="-111.20,316.80 -111.55,314.35 -112.60,312.60 -114.35,311.55 -116.80,311.20"/>
    </edge>
    <edge id=":J11_1" function="internal">
        <lane id=":J11_1_0" index="0" speed="13.89" length="33.70" shape="-108.00,316.80 -108.50,306.80 -109.60,300.00 -110.70,293.20 -111.20,283.20"/>
        <lane id=":J11_1_1" index="1" speed="13.89" length="33.70" shape="-108.00,316.80 -108.00,283.20"/>
        <lane id=":J11_1_2" index="2" speed="13.89" length="33.70" shape="-104.80,316.80 -104.80,283.20"/>
        <lane id=":J11_1_3" index="3" speed="13.89" length="33.70" shape="-104.80,316.80 -104.30,306.80 -103.20,300.00 -102.10,293.20 -101.60,283.20"/>
    </edge>
    <edge id=":J11_5" function="internal">
        <lane id=":J11_5_0" index="0" speed="11.36" length="7.62" shape="-101.60,316.80 -100.52,309.25"/>
    </edge>
    <edge id=":J11_6" function="internal">
        <lane id=":J11_6_0" index="0" speed="3.65" length="1.44" shape="-101.60,316.80 -100.80,315.60"/>
    </edge>
    <edge id=":J11_28" function="internal">
        <lane id=":J11_28_0" index="0" speed="11.36" length="22.05" shape="-100.52,309.25 -100.45,308.75 -97.00,303.00 -91.25,299.55 -83.20,298.40"/>
    </edge>
    <edge id=":J11_29" function="internal">
        <lane id=":J11_29_0" index="0" speed="3.65" length="3.23" shape="-100.80,315.60 -100.00,315.20 -99.20,315.60 -98.40,316.80"/>
    </edge>
    <edge id=":J11_7" function="internal">
        <lane id=":J11_7_0" index="0" speed="6.51" length="9.03" shape="-83.20,311.20 -85.65,311.55 -87.40,312.60 -88.45,314.35 -88.80,316.80"/>
    </edge>
    <edge id=":J11_8" function="internal">
        <lane id=":J11_8_0" index="0" speed="13.89" length="33.70" shape="-83.20,308.00 -93.20,308.50 -100.00,309.60 -106.80,310.70 -116.80,311.20"/>
        <lane id=":J11_8_1" index="1" speed="13.89" length="33.70" shape="-83.20,308.00 -116.80,308.00"/>
        <lane id=":J11_8_2" index="2" speed="13.89" length="33.70" shape="-83.20,304.80 -116.80,304.80"/>
        <lane id=":J11_8_3" index="3" speed="13.89" length="33.70" shape="-83.20,304.80 -93.20,304.30 -100.00,303.20 -106.80,302.10 -116.80,301.60"/>
    </edge>
    <edge id=":J11_12" function="internal">
        <lane id=":J11_12_0" index="0" speed="11.36" length="7.62" shape="-83.20,301.60 -90.75,300.52"/>
    </edge>
    <edge id=":J11_13" function="internal">
        <lane id=":J11_13_0" index="0" speed="3.65" length="1.44" shape="-83.20,301.60 -84.40,300.80"/>
    </edge>
    <edge id=":J11_30" function="internal">
        <lane id=":J11_30_0" index="0" speed="11.36" length="22.05" shape="-90.75,300.52 -91.25,300.45 -97.00,297.00 -100.45,291.25 -101.60,283.20"/>
    </edge>
    <edge id=":J11_31" function="internal">
        <lane id=":J11_31_0" index="0" speed="3.65" length="3.23" shape="-84.40,300.80 -84.80,300.00 -84.40,299.20 -83.20,298.40"/>
    </edge>
    <edge id=":J11_14" function="internal">
        <lane id=":J11_14_0" index="0" speed="6.51" length="9.03" shape="-88.80,283.20 -88.45,285.65 -87.40,287.40 -85.65,288.45 -83.20,288.80"/>
    </edge>
    <edge id=":J11_15" function="internal">
        <lane id=":J11_15_0" index="0" speed="13.89" length="33.70" shape="-92.00,283.20 -91.50,293.20 -90.40,300.00 -89.30,306.80 -88.80,316.80"/>
        <lane id=":J11_15_1" index="1" speed="13.89" length="33.70" shape="-92.00,283.20 -92.00,316.80"/>
        <lane id=":J11_15_2" index="2" speed="13.89" length="33.70" shape="-95.20,283.20 -95.20,316.80"/>
        <lane id=":J11_15_3" index="3" speed="13.89" length="33.70" shape="-95.20,283.20 -95.70,293.20 -96.80,300.00 -97.90,306.80 -98.40,316.80"/>
    </edge>
    <edge id=":J11_19" function="internal">
        <lane id=":J11_19_0" index="0" speed="11.36" length="7.62" shape="-98.40,283.20 -99.48,290.75"/>
    </edge>
    <edge id=":J11_20" function="internal">
        <lane id=":J11_20_0" index="0" speed="3.65" length="1.44" shape="-98.40,283.20 -99.20,284.40"/>
    </edge>
    <edge id=":J11_32" function="internal">
        <lane id=":J11_32_0" index="0" speed="11.36" length="22.05" shape="-99.48,290.75 -99.55,291.25 -103.00,297.00 -108.75,300.45 -116.80,301.60"/>
    </edge>
    <edge id=":J11_33" function="internal">
        <lane id=":J11_33_0" index="0" speed="3.65" length="3.23" shape="-99.20,284.40 -100.00,284.80 -100.80,284.40 -101.60,283.20"/>
    </edge>
    <edge id=":J11_21" function="internal">
        <lane id=":J11_21_0" index="0" speed="6.51" length="9.03" shape="-116.80,288.80 -114.35,288.45 -112.60,287.40 -111.55,285.65 -111.20,283.20"/>
    </edge>
    <edge id=":J11_22" function="internal">
        <lane id=":J11_22_0" index="0" speed="13.89" length="33.70" shape="-116.80,292.00 -106.80,291.50 -100.00,290.40 -93.20,289.30 -83.20,288.80"/>
        <lane id=":J11_22_1" index="1" speed="13.89" length="33.70" shape="-116.80,292.00 -83.20,292.00"/>
        <lane id=":J11_22_2" index="2" speed="13.89" length="33.70" shape="-116.80,295.20 -83.20,295.20"/>
        <lane id=":J11_22_3" index="3" speed="13.89" length="33.70" shape="-116.80,295.20 -106.80,295.70 -100.00,296.80 -93.20,297.90 -83.20,298.40"/>
    </edge>
    <edge id=":J11_26" function="internal">
        <lane id=":J11_26_0" index="0" speed="11.36" length="7.62" shape="-116.80,298.40 -109.25,299.48"/>
    </edge>
    <edge id=":J11_27" function="internal">
        <lane id=":J11_27_0" index="0" speed="3.65" length="1.44" shape="-116.80,298.40 -115.60,299.20"/>
    </edge>
    <edge id=":J11_34" function="internal">
        <lane id=":J11_34_0" index="0" speed="11.36" length="22.05" shape="-109.25,299.48 -108.75,299.55 -103.00,303.00 -99.55,308.75 -98.40,316.80"/>
    </edge>
    <edge id=":J11_35" function="internal">
        <lane id=":J11_35_0" index="0" speed="3.65" length="3.23" shape="-115.60,299.20 -115.20,300.00 -115.60,300.80 -116.80,301.60"/>
    </edge>
    <edge id=":J12_0" function="internal">
        <lane id=":J12_0_0" index="0" speed="6.51" length="9.03" shape="-11.20,316.80 -11.55,314.35 -12.60,312.60 -14.35,311.55 -16.80,311.20"/>
    </edge>
    <edge id=":J12_1" function="internal">
        <lane id=":J12_1_0" index="0" speed="13.89" length="33.70" shape="-8.00,316.80 -8.50,306.80 -9.60,300.00 -10.70,293.20 -11.20,283.20"/>
        <lane id=":J12_1_1" index="1" speed="13.89" length="33.70" shape="-8.00,316.80 -8.00,283.20"/>
        <lane id=":J12_1_2" index="2" speed="13.89" length="33.70" shape="-4.80,316.80 -4.80,283.20"/>
        <lane id=":J12_1_3" index="3" speed="13.89" length="33.70" shape="-4.80,316.80 -4.30,306.80 -3.20,300.00 -2.10,293.20 -1.60,283.20"/>
    </edge>
    <edge id=":J12_5" function="internal">
        <lane id=":J12_5_0" index="0" speed="11.36" length="5.01" shape="-1.60,316.80 -0.89,311.84"/>
    </edge>
    <edge id=":J12_6" function="internal">
        <lane id=":J12_6_0" index="0" speed="3.65" length="1.44" shape="-1.60,316.80 -0.80,315.60"/>
    </edge>
    <edge id=":J12_27" function="internal">
        <lane id=":J12_27_0" index="0" speed="11.36" length="24.66" shape="-0.89,311.84 -0.45,308.75 3.00,303.00 8.75,299.55 16.80,298.40"/>
    </edge>
    <edge id=":J12_28" function="internal">
        <lane id=":J12_28_0" index="0" speed="3.65" length="3.23" shape="-0.80,315.60 0.00,315.20 0.80,315.60 1.60,316.80"/>
    </edge>
    <edge id=":J12_7" function="internal">
        <lane id=":J12_7_0" index="0" speed="6.51" length="9.03" shape="16.80,311.20 14.35,311.55 12.60,312.60 11.55,314.35 11.20,316.80"/>
    </edge>
    <edge id=":J12_8" function="internal">
        <lane id=":J12_8_0" index="0" speed="13.89" length="33.70" shape="16.80,308.00 6.80,308.50 0.00,309.60 -6.80,310.70 -16.80,311.20"/>
        <lane id=":J12_8_1" index="1" speed="13.89" length="33.70" shape="16.80,308.00 -16.80,308.00"/>
        <lane id=":J12_8_2" index="2" speed="13.89" length="33.70" shape="16.80,304.80 -16.80,304.80"/>
        <lane id=":J12_8_3" index="3" speed="13.89" length="33.70" shape="16.80,304.80 6.80,304.30 0.00,303.20 -6.80,302.10 -16.80,301.60"/>
    </edge>
    <edge id=":J12_12" function="internal">
        <lane id=":J12_12_0" index="0" speed="11.36" length="7.62" shape="16.80,301.60 9.25,300.52"/>
    </edge>
    <edge id=":J12_13" function="internal">
        <lane id=":J12_13_0" index="0" speed="3.65" length="1.44" shape="16.80,301.60 15.60,300.80"/>
    </edge>
    <edge id=":J12_29" function="internal">
        <lane id=":J12_29_0" index="0" speed="11.36" length="22.05" shape="9.25,300.52 8.75,300.45 3.00,297.00 -0.45,291.25 -1.60,283.20"/>
    </edge>
    <edge id=":J12_30" function="internal">
        <lane id=":J12_30_0" index="0" speed="3.65" length="3.23" shape="15.60,300.80 15.20,300.00 15.60,299.20 16.80,298.40"/>
    </edge>
    <edge id=":J12_14" function="internal">
        <lane id=":J12_14_0" index="0" speed="6.51" length="9.03" shape="11.20,283.20 11.55,285.65 12.60,287.40 14.35,288.45 16.80,288.80"/>
    </edge>
    <edge id=":J12_15" function="internal">
        <lane id=":J12_15_0" index="0" speed="13.89" length="33.60" shape="11.20,283.20 11.20,316.80"/>
        <lane id=":J12_15_1" index="1" speed="13.89" length="33.60" shape="8.00,283.20 8.00,316.80"/>
        <lane id=":J12_15_2" index="2" speed="13.89" length="33.60" shape="4.80,283.20 4.80,316.80"/>
        <lane id=":J12_15_3" index="3" speed="13.89" length="33.60" shape="1.60,283.20 1.60,316.80"/>
    </edge>
    <edge id=":J12_19" function="internal">
        <lane id=":J12_19_0" index="0" speed="11.36" length="7.62" shape="1.60,283.20 0.52,290.75"/>
    </edge>
    <edge id=":J12_31" function="internal">
        <lane id=":J12_31_0" index="0" speed="11.36" length="22.05" shape="0.52,290.75 0.45,291.25 -3.00,297.00 -8.75,300.45 -16.80,301.60"/>
    </edge>
    <edge id=":J12_20" function="internal">
        <lane id=":J12_20_0" index="0" speed="6.51" length="9.03" shape="-16.80,288.80 -14.35,288.45 -12.60,287.40 -11.55,285.65 -11.20,283.20"/>
    </edge>
    <edge id=":J12_21" function="internal">
        <lane id=":J12_21_0" index="0" speed="13.89" length="33.70" shape="-16.80,292.00 -6.80,291.50 -0.00,290.40 6.80,289.30 16.80,288.80"/>
        <lane id=":J12_21_1" index="1" speed="13.89" length="33.70" shape="-16.80,292.00 16.80,292.00"/>
        <lane id=":J12_21_2" index="2" speed="13.89" length="33.70" shape="-16.80,295.20 16.80,295.20"/>
        <lane id=":J12_21_3" index="3" speed="13.89" length="33.70" shape="-16.80,295.20 -6.80,295.70 -0.00,296.80 6.80,297.90 16.80,298.40"/>
    </edge>
    <edge id=":J12_25" function="internal">
        <lane id=":J12_25_0" index="0" speed="11.36" length="7.62" shape="-16.80,298.40 -9.25,299.48"/>
    </edge>
    <edge id=":J12_26" function="internal">
        <lane id=":J12_26_0" index="0" speed="3.65" length="1.44" shape="-16.80,298.40 -15.60,299.20"/>
    </edge>
    <edge id=":J12_32" function="internal">
        <lane id=":J12_32_0" index="0" speed="11.36" length="22.05" shape="-9.25,299.48 -8.75,299.55 -3.00,303.00 0.45,308.75 1.60,316.80"/>
    </edge>
    <edge id=":J12_33" function="internal">
        <lane id=":J12_33_0" index="0" speed="3.65" length="3.23" shape="-15.60,299.20 -15.20,300.00 -15.60,300.80 -16.80,301.60"/>
    </edge>
    <edge id=":J13_0" function="internal">
        <lane id=":J13_0_0" index="0" speed="6.51" length="9.03" shape="88.80,316.80 88.45,314.35 87.40,312.60 85.65,311.55 83.20,311.20"/>
    </edge>
    <edge id=":J13_1" function="internal">
        <lane id=":J13_1_0" index="0" speed="13.89" length="33.70" shape="92.00,316.80 91.50,306.80 90.40,300.00 89.30,293.20 88.80,283.20"/>
        <lane id=":J13_1_1" index="1" speed="13.89" length="33.70" shape="92.00,316.80 92.00,283.20"/>
        <lane id=":J13_1_2" index="2" speed="13.89" length="33.70" shape="95.20,316.80 95.20,283.20"/>
        <lane id=":J13_1_3" index="3" speed="13.89" length="33.70" shape="95.20,316.80 95.70,306.80 96.80,300.00 97.90,293.20 98.40,283.20"/>
    </edge>
    <edge id=":J13_5" function="internal">
        <lane id=":J13_5_0" index="0" speed="11.36" length="7.62" shape="98.40,316.80 99.48,309.25"/>
    </edge>
    <edge id=":J13_6" function="internal">
        <lane id=":J13_6_0" index="0" speed="3.65" length="1.44" shape="98.40,316.80 99.20,315.60"/>
    </edge>
    <edge id=":J13_27" function="internal">
        <lane id=":J13_27_0" index="0" speed="11.36" length="22.05" shape="99.48,309.25 99.55,308.75 103.00,303.00 108.75,299.55 116.80,298.40"/>
    </edge>
    <edge id=":J13_28" function="internal">
        <lane id=":J13_28_0" index="0" speed="3.65" length="3.23" shape="99.20,315.60 100.00,315.20 100.80,315.60 101.60,316.80"/>
    </edge>
    <edge id=":J13_7" function="internal">
        <lane id=":J13_7_0" index="0" speed="6.51" length="9.03" shape="116.80,311.20 114.35,311.55 112.60,312.60 111.55,314.35 111.20,316.80"/>
    </edge>
    <edge id=":J13_8" function="internal">
        <lane id=":J13_8_0" index="0" speed="13.89" length="33.70" shape="116.80,308.00 106.80,308.50 100.00,309.60 93.20,310.70 83.20,311.20"/>
        <lane id=":J13_8_1" index="1" speed="13.89" length="33.70" shape="116.80,308.00 83.20,308.00"/>
        <lane id=":J13_8_2" index="2" speed="13.89" length="33.70" shape="116.80,304.80 83.20,304.80"/>
        <lane id=":J13_8_3" index="3" speed="13.89" length="33.70" shape="116.80,304.80 106.80,304.30 100.00,303.20 93.20,302.10 83.20,301.60"/>
    </edge>
    <edge id=":J13_12" function="internal">
        <lane id=":J13_12_0" index="0" speed="11.36" length="7.62" shape="116.80,301.60 109.25,300.52"/>
    </edge>
    <edge id=":J13_13" function="internal">
        <lane id=":J13_13_0" index="0" speed="3.65" length="1.44" shape="116.80,301.60 115.60,300.80"/>
    </edge>
    <edge id=":J13_29" function="internal">
        <lane id=":J13_29_0" index="0" speed="11.36" length="22.05" shape="109.25,300.52 108.75,300.45 103.00,297.00 99.55,291.25 98.40,283.20"/>
    </edge>
    <edge id=":J13_30" function="internal">
        <lane id=":J13_30_0" index="0" speed="3.65" length="3.23" shape="115.60,300.80 115.20,300.00 115.60,299.20 116.80,298.40"/>
    </edge>
    <edge id=":J13_14" function="internal">
        <lane id=":J13_14_0" index="0" speed="6.51" length="9.03" shape="111.20,283.20 111.55,285.65 112.60,287.40 114.35,288.45 116.80,288.80"/>
    </edge>
    <edge id=":J13_15" function="internal">
        <lane id=":J13_15_0" index="0" speed="13.89" length="33.70" shape="108.00,283.20 108.50,293.20 109.60,300.00 110.70,306.80 111.20,316.80"/>
        <lane id=":J13_15_1" index="1" speed="13.89" length="33.70" shape="108.00,283.20 108.00,316.80"/>
        <lane id=":J13_15_2" index="2" speed="13.89" length="33.70" shape="104.80,283.20 104.80,316.80"/>
        <lane id=":J13_15_3" index="3" speed="13.89" length="33.70" shape="104.80,283.20 104.30,293.20 103.20,300.00 102.10,306.80 101.60,316.80"/>
    </edge>
    <edge id=":J13_19" function="internal">
        <lane id=":J13_19_0" index="0" speed="11.36" length="7.62" shape="101.60,283.20 100.52,290.75"/>
    </edge>
    <edge id=":J13_31" function="internal">
        <lane id=":J13_31_0" index="0" speed="11.36" length="22.05" shape="100.52,290.75 100.45,291.25 97.00,297.00 91.25,300.45 83.20,301.60"/>
    </edge>
    <edge id=":J13_20" function="internal">
        <lane id=":J13_20_0" index="0" speed="6.51" length="9.03" shape="83.20,288.80 85.65,288.45 87.40,287.40 88.45,285.65 88.80,283.20"/>
    </edge>
    <edge id=":J13_21" function="internal">
        <lane id=":J13_21_0" index="0" speed="13.89" length="33.70" shape="83.20,292.00 93.20,291.50 100.00,290.40 106.80,289.30 116.80,288.80"/>
        <lane id=":J13_21_1" index="1" speed="13.89" length="33.70" shape="83.20,292.00 116.80,292.00"/>
        <lane id=":J13_21_2" index="2" speed="13.89" length="33.70" shape="83.20,295.20 116.80,295.20"/>
        <lane id=":J13_21_3" index="3" speed="13.89" length="33.70" shape="83.20,295.20 93.20,295.70 100.00,296.80 106.80,297.90 116.80,298.40"/>
    </edge>
    <edge id=":J13_25" function="internal">
        <lane id=":J13_25_0" index="0" speed="11.36" length="7.62" shape="83.20,298.40 90.75,299.48"/>
    </edge>
    <edge id=":J13_26" function="internal">
        <lane id=":J13_26_0" index="0" speed="3.65" length="1.44" shape="83.20,298.40 84.40,299.20"/>
    </edge>
    <edge id=":J13_32" function="internal">
        <lane id=":J13_32_0" index="0" speed="11.36" length="22.05" shape="90.75,299.48 91.25,299.55 97.00,303.00 100.45,308.75 101.60,316.80"/>
    </edge>
    <edge id=":J13_33" function="internal">
        <lane id=":J13_33_0" index="0" speed="3.65" length="3.23" shape="84.40,299.20 84.80,300.00 84.40,300.80 83.20,301.60"/>
    </edge>
    <edge id=":J2_0" function="internal">
        <lane id=":J2_0_0" index="0" speed="6.51" length="9.03" shape="-11.20,216.80 -11.55,214.35 -12.60,212.60 -14.35,211.55 -16.80,211.20"/>
    </edge>
    <edge id=":J2_1" function="internal">