<?xml version="1.0" encoding="UTF-8"?>

<configuration xmlns:xsi="http://www.w3.org/2001/XMLSchema-instance" xsi:noNamespaceSchemaLocation="http://sumo.dlr.de/xsd/duarouterConfiguration.xsd">

	<input>
		<net-file value="network.net.xml"/>
		<route-files value = "routes_NOEMS.rou.xml"/>
		<additional-files value="additionals_NOEMS.add.xml"/>
	</input>

	<time>
		<begin value="0"/>
		<end value="1000"/>
	</time>

	<processing>
		<lateral-resolution value="1.8"/>
	</processing>

</configuration>