<?xml version="1.0" encoding="UTF-8"?>

<configuration xmlns:xsi="http://www.w3.org/2001/XMLSchema-instance" xsi:noNamespaceSchemaLocation="http://sumo.dlr.de/xsd/duarouterConfiguration.xsd">

	<input>
		<net-file value="network.net.xml"/>
<<<<<<< Updated upstream:3x3Grid/sim_EMS.sumocfg
		<route-files value = "routes_EMS.rou.xml"/>
		<additional-files value="additionals_EMS.add.xml"/>
=======
		<route-files value = "routes_0.01.rou.xml"/>
>>>>>>> Stashed changes:3x3Grid/network_sim.sumo.cfg
	</input>

	<time>
		<begin value="0"/>
		<end value="1000"/>
	</time>

	<processing>
		<lateral-resolution value="1.8"/>
	</processing>

</configuration>