<?xml version="1.0" encoding="UTF-8"?>

<!-- generated on 2022-11-07 14:51:56 by Eclipse SUMO polyconvert Version 1.14.1
<configuration xmlns:xsi="http://www.w3.org/2001/XMLSchema-instance" xsi:noNamespaceSchemaLocation="http://sumo.dlr.de/xsd/polyconvertConfiguration.xsd">

    <input>
        <net-file value="osm.net.xml"/>
        <osm-files value="osm_bbox.osm.xml.gz"/>
        <osm.keep-full-type value="true"/>
        <type-file value="C:\Program%20Files%20(x86)\Eclipse\Sumo\data\typemap\osmPolyconvert.typ.xml"/>
    </input>

    <output>
        <output-file value="osm.poly.xml"/>
    </output>

    <report>
        <verbose value="true"/>
    </report>

</configuration>
-->

<additional xmlns:xsi="http://www.w3.org/2001/XMLSchema-instance" xsi:noNamespaceSchemaLocation="http://sumo.dlr.de/xsd/additional_file.xsd">
    <location netOffset="-587730.36,-4476577.16" convBoundary="0.00,-747.77,3033.78,2906.96" origBoundary="-79.965561,40.428319,-79.929640,40.461325" projParameter="+proj=utm +zone=17 +ellps=WGS84 +datum=WGS84 +units=m +no_defs"/>

    <poly id="1000417250" type="landuse.recreation_ground" color="194,194,130" fill="1" layer="-3.00" shape="1353.645888,1003.928628 1360.153357,985.943494 1313.358410,966.724959 1305.985853,986.853585 1353.645888,1003.928628"/>
    <poly id="1000417251" type="leisure.garden" color="207,245,201" fill="1" layer="-2.00" shape="1543.248345,1203.930767 1532.109692,1202.698920 1535.291344,1174.860332 1546.320316,1183.873207 1543.248345,1203.930767"/>
    <poly id="1000419332" type="amenity.food_court" color="237,199,199" fill="1" layer="-1.00" shape="2141.110923,861.086903 2140.843264,858.652403 2139.904412,849.948446 2156.575377,845.396940 2156.423345,843.929681 2174.192227,839.069439 2176.926219,849.438012 2175.207095,849.916956 2176.033679,852.424778 2172.357436,853.424217 2172.487400,853.903153 2170.212893,854.719587 2167.912811,855.546816 2165.716231,856.230965 2163.613207,856.894034 2161.067449,857.696113 2159.271068,858.251845 2157.790609,858.633741 2157.305606,856.640702 2141.110923,861.086903"/>
    <poly id="1000419332#1" type="building.yes" color="255,230,230" fill="1" layer="-1.00" shape="2141.110923,861.086903 2140.843264,858.652403 2139.904412,849.948446 2156.575377,845.396940 2156.423345,843.929681 2174.192227,839.069439 2176.926219,849.438012 2175.207095,849.916956 2176.033679,852.424778 2172.357436,853.424217 2172.487400,853.903153 2170.212893,854.719587 2167.912811,855.546816 2165.716231,856.230965 2163.613207,856.894034 2161.067449,857.696113 2159.271068,858.251845 2157.790609,858.633741 2157.305606,856.640702 2141.110923,861.086903"/>
    <poly id="1001793191" type="natural.wood" color="140,196,107" fill="1" layer="-4.00" shape="1857.236600,897.763370 1851.794319,898.208955 1847.256262,900.352827 1843.609953,905.238401 1842.220828,911.460980 1842.818003,914.010426 1828.413499,917.734886 1826.831002,899.697800 1817.128947,895.329818 1786.482545,899.670615 1783.166112,893.991283 1777.757463,896.591065 1770.374460,893.349935 1763.681491,885.598641 1756.085921,882.399392 1833.033923,859.050703 1824.681738,826.200630 1837.045301,822.929127 1835.494496,816.427152 1836.660224,816.119141 1839.265192,815.328763 1849.738927,815.465125 1854.050100,828.039479 1858.605361,840.061667 1862.575960,852.032457 1865.742861,863.827110 1865.821829,874.952023 1857.236600,897.763370"/>
    <poly id="1001793195" type="leisure.garden" color="207,245,201" fill="1" layer="-2.00" shape="1775.310546,1158.818800 1779.751678,1166.898457 1789.111538,1162.258778 1784.979956,1153.827558 1775.310546,1158.818800"/>
    <poly id="1001793197" type="amenity.shelter" color="237,199,199" fill="1" layer="-1.00" shape="1857.644469,1089.151612 1856.703578,1086.975512 1863.377734,1083.513888 1864.699850,1085.727855 1857.644469,1089.151612"/>
    <poly id="1001793197#1" type="building.yes" color="255,230,230" fill="1" layer="-1.00" shape="1857.644469,1089.151612 1856.703578,1086.975512 1863.377734,1083.513888 1864.699850,1085.727855 1857.644469,1089.151612"/>
    <poly id="1001793198" type="leisure.garden" color="207,245,201" fill="1" layer="-2.00" shape="2018.116021,1034.242954 2043.378073,1029.028142 2044.191254,1026.995163 2043.585711,1023.735084 2016.110062,1026.103518 2018.116021,1034.242954"/>
    <poly id="1001795323" type="natural.tree_row" color="140,196,107" fill="0" layer="-4.00" shape="1766.307201,1137.884288 1773.414438,1134.372253"/>
    <poly id="1001795324" type="natural.tree_row" color="140,196,107" fill="0" layer="-4.00" shape="1778.672523,1131.581941 1785.231049,1128.562938"/>
    <poly id="1001795325" type="natural.tree_row" color="140,196,107" fill="0" layer="-4.00" shape="1790.461578,1125.949934 1795.641892,1123.280824"/>
    <poly id="1001795326" type="natural.tree_row" color="140,196,107" fill="0" layer="-4.00" shape="1800.366384,1120.428640 1806.039637,1117.676615"/>
    <poly id="1001795327" type="natural.tree_row" color="140,196,107" fill="0" layer="-4.00" shape="1811.345046,1115.186640 1817.165263,1112.203244"/>
    <poly id="1001795328" type="natural.tree_row" color="140,196,107" fill="0" layer="-4.00" shape="1821.926466,1109.828888 1828.114142,1106.616757"/>
    <poly id="1001795329" type="natural.tree_row" color="140,196,107" fill="0" layer="-4.00" shape="1832.123245,1116.067898 1796.657528,1133.395573"/>
    <poly id="1001795330" type="natural.tree_row" color="140,196,107" fill="0" layer="-4.00" shape="1797.558741,1139.601132 1807.383834,1159.191093"/>
    <poly id="1001795331" type="natural.tree_row" color="140,196,107" fill="0" layer="-4.00" shape="1768.890504,1143.155193 1775.840577,1140.018742"/>
    <poly id="1001795332" type="natural.tree_row" color="140,196,107" fill="0" layer="-4.00" shape="1781.481211,1137.155293 1787.608289,1134.042321"/>
    <poly id="1001795333" type="natural.tree_row" color="140,196,107" fill="0" layer="-4.00" shape="1782.592315,1170.507179 1796.663247,1163.425922"/>
    <poly id="1001795334" type="natural.tree_row" color="140,196,107" fill="0" layer="-4.00" shape="1839.250682,1112.289723 1850.239990,1106.870278 1850.429445,1113.722335"/>
    <poly id="1001797770" type="man_made.courtyard" color="255,230,230" fill="1" layer="-1.00" shape="2029.188941,767.078274 2030.580874,764.175189 2033.347219,761.954683 2037.048030,760.322668 2040.664499,760.066265 2044.447625,760.766613 2047.168072,762.375672 2048.394240,767.641507 2046.943732,770.477276 2043.897383,772.705523 2040.411659,774.084771 2036.429054,774.458906 2033.169622,773.942466 2030.614438,771.991238 2030.060616,770.075096 2029.188941,767.078274"/>
    <poly id="1001798120" type="natural.tree_row" color="140,196,107" fill="0" layer="-4.00" shape="2122.861052,826.152688 2167.147053,814.050283"/>
    <poly id="1001941217" type="building.university" color="255,230,230" fill="1" layer="-1.00" shape="1585.570664,745.977311 1589.391445,744.946004 1591.151061,751.739056 1608.048476,747.388866 1614.267880,771.398430 1611.783246,772.057101 1615.906044,788.370349 1595.794998,793.348297 1588.251524,763.006062 1586.592185,763.452548 1585.635250,759.766457 1584.686928,756.069367 1588.397055,755.070045 1585.570664,745.977311"/>
    <poly id="1002531075" type="building.dormitory" color="255,230,230" fill="1" layer="-1.00" shape="1857.528513,1132.169580 1869.394999,1127.160321 1873.291444,1125.463961 1902.202974,1112.931875 1897.008738,1101.168444 1871.550909,1112.143216 1867.083675,1101.287749 1866.316044,1101.644923 1865.323345,1099.545915 1860.915932,1101.413794 1860.402487,1100.375188 1859.472664,1100.819237 1858.679326,1101.198309 1859.167727,1102.203310 1858.630665,1102.430023 1859.605209,1104.628730 1855.392986,1106.487846 1860.046937,1117.334438 1852.570349,1120.520023 1857.528513,1132.169580"/>
    <poly id="1002857130" type="leisure.pitch" color="207,245,201" fill="1" layer="-2.00" shape="1805.495634,931.182655 1818.540713,917.716752 1811.798632,911.241528 1798.770516,924.707645 1805.495634,931.182655"/>
    <poly id="1002857130#1" type="sport.volleyball" color="79,230,125" fill="1" layer="-2.00" shape="1805.495634,931.182655 1818.540713,917.716752 1811.798632,911.241528 1798.770516,924.707645 1805.495634,931.182655"/>
    <poly id="1002857138" type="building.university" color="255,230,230" fill="1" layer="-1.00" shape="1938.791299,683.764717 1961.550191,678.008953 1961.185958,676.550260 1964.632869,675.581276 1961.428278,663.397570 1979.299216,658.538080 1973.899937,638.379219 1974.359909,638.218201 1972.121361,629.654135 1960.963856,632.762238 1960.279624,630.400471 1923.618014,639.708913 1926.033054,650.539836 1922.327056,651.894300 1928.947015,677.796242 1936.978880,675.738648 1938.791299,683.764717"/>
    <poly id="1002857141" type="leisure.garden" color="207,245,201" fill="1" layer="-2.00" shape="1791.879396,915.088859 1795.698287,929.822139 1782.881470,932.710828 1776.405231,923.152524 1775.681779,918.392324 1777.408146,918.013292 1776.951257,917.208505 1791.879396,915.088859"/>
    <poly id="1007453778" type="building.dormitory" color="255,230,230" fill="1" layer="-1.00" shape="1643.344750,1417.445894 1643.448896,1416.536792 1643.962997,1411.835779 1645.631607,1412.022221 1645.812868,1410.336916 1647.794979,1410.549303 1648.413495,1404.916988 1669.563757,1407.245489 1670.733377,1396.657265 1667.014941,1396.246515 1667.385555,1392.909308 1668.574917,1382.088183 1664.222180,1381.525539 1661.038121,1387.504687 1652.283890,1386.911714 1645.546085,1381.524651 1645.687992,1379.583535 1647.171212,1366.168102 1686.838039,1370.505056 1681.207017,1421.594762 1643.344750,1417.445894"/>
    <poly id="1008923397" type="landuse.recreation_ground" color="194,194,130" fill="1" layer="-3.00" shape="1764.190667,1136.848735 1757.847262,1124.705315 1758.042861,1123.242219 1758.830222,1123.362645 1759.701248,1107.963803 1774.025455,1103.827496 1777.049577,1102.731258 1821.567762,1090.174470 1825.902681,1088.694262 1846.787117,1082.826954 1851.394214,1092.629413 1832.677160,1102.374940 1828.566443,1104.257489 1788.502857,1125.193804 1785.697244,1126.459175 1764.190667,1136.848735"/>
    <poly id="1009976995" type="man_made.courtyard" color="255,230,230" fill="1" layer="-1.00" shape="1952.208895,885.056079 1975.096827,878.391571 1981.608470,901.972013 1977.498963,903.032967 1977.211225,904.395038 1976.341771,905.461496 1975.205852,906.113997 1972.423070,906.879995 1971.499841,903.938070 1968.086292,904.962957 1968.917164,907.826063 1965.590152,908.707665 1964.136114,908.301689 1962.578738,907.317185 1958.741153,908.336998 1952.208895,885.056079"/>
    <poly id="1010489478" type="amenity.parking" color="184,184,179" fill="1" layer="-1.00" shape="1790.086588,1287.165327 1785.932023,1287.049054 1781.551452,1283.843790 1778.618053,1283.742117 1778.433522,1289.246389 1773.694346,1289.078728 1773.370366,1298.444749 1775.769632,1298.528934 1775.353385,1310.647091 1777.761128,1310.731378 1776.917229,1335.211795 1776.888726,1336.177308 1776.861947,1336.998519 1769.944565,1336.704909 1769.293809,1347.865512 1775.591326,1348.218323 1776.104111,1348.601912 1776.342476,1349.237562 1776.341404,1350.036877 1776.236578,1351.001478 1787.894531,1352.051173 1790.086588,1287.165327"/>
    <poly id="1010489484" type="amenity.parking" color="184,184,179" fill="1" layer="-1.00" shape="1728.709905,1335.801440 1730.964464,1335.928289 1734.880096,1336.163797 1735.131335,1335.012215 1735.382840,1333.838432 1735.786298,1322.075378 1736.014149,1314.362372 1736.438282,1302.288716 1748.519410,1302.710602 1748.790073,1294.964802 1736.776643,1294.554826 1737.188583,1282.791874 1749.346066,1283.214673 1749.616597,1275.479974 1737.696551,1275.060011 1737.891257,1269.411538 1731.252735,1269.199009 1729.063801,1293.396916 1728.267770,1301.813648 1727.511556,1318.257433 1727.201237,1332.874754 1727.811021,1332.948649 1728.342759,1333.165935 1728.711913,1333.503398 1728.841232,1334.037827 1728.709905,1335.801440"/>
    <poly id="1010489487" type="amenity.parking" color="184,184,179" fill="1" layer="-1.00" shape="1718.345388,1340.073932 1721.903290,1336.175303 1721.348630,1335.746811 1720.864332,1335.108225 1720.636961,1334.261775 1720.505260,1333.216635 1720.608902,1330.220396 1720.639116,1329.821093 1720.897502,1329.491127 1721.204914,1329.317171 1721.713730,1329.323248 1722.303637,1329.641144 1725.716923,1332.879226 1729.612583,1238.227691 1732.713796,1233.513182 1735.495363,1233.546412 1735.917579,1228.022777 1727.217488,1211.521537 1676.775816,1239.350780 1647.127992,1184.309602 1645.688701,1184.092593 1642.568857,1193.214313 1638.589144,1191.945627 1625.100567,1230.563126 1598.349492,1221.329272 1602.131123,1210.050585 1596.601609,1207.875293 1592.815345,1218.831976 1592.364030,1218.982018 1591.863024,1219.031551 1591.227523,1218.979564 1590.638264,1218.606178 1588.931835,1217.320224 1586.024479,1226.411196 1586.883912,1226.177207 1587.741358,1226.109721 1588.877731,1226.123275 1590.112691,1226.404446 1590.531548,1226.842411 1590.308020,1227.805598 1589.404486,1230.314921 1615.166248,1239.292702 1614.742768,1240.664268 1664.533858,1258.077635 1677.171182,1259.516304 1676.899014,1261.000691 1689.688315,1262.496705 1706.762043,1264.598996 1706.631780,1266.273807 1709.605865,1266.520260 1709.249587,1261.553515 1710.096647,1247.442186 1709.473470,1247.778898 1708.657896,1247.891277 1701.222598,1247.635955 1697.596975,1247.259605 1697.312357,1246.234844 1712.186058,1237.964030 1711.979431,1246.032545 1711.917271,1248.396479 1710.946649,1272.853178 1710.141566,1291.261392 1711.775347,1292.235657 1712.425543,1293.187073 1713.012665,1294.448585 1713.311057,1295.739954 1712.882259,1297.555522 1712.093713,1298.956029 1711.228452,1299.678411 1710.407050,1300.279198 1709.641559,1323.184101 1709.492188,1329.299391 1710.456279,1330.953967 1704.889746,1335.439209 1710.717243,1341.770205 1715.659943,1337.677179 1716.797614,1339.000777 1718.345388,1340.073932"/>
    <poly id="1010489499" type="natural.tree_row" color="140,196,107" fill="0" layer="-4.00" shape="1622.644476,1260.830528 1638.910466,1262.390142"/>
    <poly id="1010489513" type="leisure.outdoor_seating" color="207,245,201" fill="1" layer="-2.00" shape="1649.974554,1266.307887 1651.376861,1266.779797 1652.548217,1271.678553 1649.539947,1271.453918 1647.828109,1271.333572 1648.193551,1267.718758 1648.856608,1267.593451 1649.420816,1267.222725 1649.877031,1266.661980 1649.974554,1266.307887"/>
    <poly id="1010489527" type="building.retail" color="255,230,230" fill="1" layer="-1.00" shape="1541.999918,1361.305523 1547.499244,1345.373446 1555.537216,1346.290809 1553.181396,1362.482393 1541.999918,1361.305523"/>
    <poly id="1010489527#1" type="shop.convenience" color="237,199,255" fill="1" layer="-1.00" shape="1541.999918,1361.305523 1547.499244,1345.373446 1555.537216,1346.290809 1553.181396,1362.482393 1541.999918,1361.305523"/>
    <poly id="1010489886" type="building.garage" color="255,230,230" fill="1" layer="-1.00" shape="1705.839092,1273.702523 1709.898259,1273.995240 1710.436542,1266.563486 1709.605865,1266.520260 1706.631780,1266.273807 1705.839092,1273.702523"/>
    <poly id="1010491191" type="amenity.parking" color="184,184,179" fill="1" layer="-1.00" shape="1095.071483,1474.923913 1100.200180,1463.694278 1115.362037,1470.357571 1113.942114,1473.515823 1108.218715,1486.259333 1106.773966,1485.076510 1106.156500,1484.935964 1105.492682,1485.127920 1104.218482,1486.012045 1098.936990,1480.809284 1099.669386,1479.841019 1100.280506,1478.371736 1100.074956,1477.825312 1095.071483,1474.923913"/>
    <poly id="1012627889" type="natural.tree_row" color="140,196,107" fill="0" layer="-4.00" shape="2190.718795,801.333060 2203.449165,778.127766"/>
    <poly id="1012627890" type="natural.tree_row" color="140,196,107" fill="0" layer="-4.00" shape="2208.873461,810.976451 2222.162762,788.555024"/>
    <poly id="1012627891" type="natural.tree_row" color="140,196,107" fill="0" layer="-4.00" shape="2206.749337,773.837700 2212.124440,776.877521"/>
    <poly id="1012627892" type="natural.tree_row" color="140,196,107" fill="0" layer="-4.00" shape="2218.976899,780.501278 2225.272545,783.874116"/>
    <poly id="1012627893" type="natural.tree_row" color="140,196,107" fill="0" layer="-4.00" shape="2214.294154,817.280745 2231.892356,788.505354"/>
    <poly id="1030258875" type="amenity.parking" color="184,184,179" fill="1" layer="-1.00" shape="1195.171254,1605.325219 1193.038041,1603.556911 1195.761563,1599.181860 1188.529734,1592.534845 1184.440809,1599.047425 1174.099198,1594.306304 1168.461942,1607.650288 1185.565310,1615.768911 1195.171254,1605.325219"/>
    <poly id="1030258877" type="amenity.parking" color="184,184,179" fill="1" layer="-1.00" shape="1200.488735,1687.463617 1185.060604,1720.408023 1153.886901,1705.905375 1169.323268,1672.972109 1200.488735,1687.463617"/>
    <poly id="1030258879" type="amenity.parking" color="184,184,179" fill="1" layer="-1.00" shape="1120.019863,1763.987444 1123.414177,1756.678364 1127.648240,1758.649213 1136.635244,1739.594249 1172.778566,1756.964576 1160.591472,1782.675864 1153.889201,1779.299079 1154.284363,1778.160289 1154.460942,1777.573992 1154.344287,1776.684467 1153.766779,1775.323198 1152.893929,1773.836304 1151.556668,1772.177370 1149.205466,1777.345080 1120.019863,1763.987444"/>
    <poly id="1030258880" type="amenity.parking" color="184,184,179" fill="1" layer="-1.00" shape="1237.971645,1864.759848 1242.874756,1852.528466 1223.662968,1844.895324 1224.126239,1843.735144 1207.142898,1836.983356 1205.919350,1840.032907 1214.765454,1843.557328 1211.452890,1851.833192 1217.268752,1854.144835 1216.447135,1856.200001 1237.971645,1864.759848"/>
    <poly id="1030258881" type="amenity.parking" color="184,184,179" fill="1" layer="-1.00" shape="1207.949183,1939.029171 1220.946651,1912.916819 1218.460464,1911.599479 1219.392402,1908.824010 1184.726216,1894.257511 1176.760810,1911.559372 1177.891805,1912.016873 1177.161855,1915.638479 1193.806779,1922.308472 1189.742746,1932.451617 1207.949183,1939.029171"/>
    <poly id="1036394000" type="amenity.parking" color="184,184,179" fill="1" layer="-1.00" shape="1939.352089,1974.241936 1929.007781,1971.931001 1919.216471,1973.723262 1911.070040,1976.256846 1904.257992,1981.382028 1899.584848,1988.486735 1897.654163,1996.035041 1898.171804,2003.801386 1901.078964,2011.030147 1906.095838,2017.007462 1912.720831,2021.127832 1920.305544,2023.006037 1928.105912,2022.455540 1935.341299,2019.511401 1941.312536,2014.487195 1945.682702,2007.190154 1947.926614,2000.400532 1949.351828,1991.158711 1950.237810,1981.621785 1938.439686,1978.904861 1939.352089,1974.241936"/>
    <poly id="1036394004" type="amenity.parking" color="184,184,179" fill="1" layer="-1.00" shape="1152.045894,1921.002174 1135.707911,1914.191595 1139.870736,1904.293834 1151.643142,1909.207330 1152.873555,1906.291074 1157.067762,1908.039434 1156.264840,1909.950505 1170.281995,1915.801025 1168.964012,1918.949376 1174.094962,1921.086328 1170.769865,1928.995703 1156.980499,1923.247801 1158.403131,1919.856452 1153.407190,1917.776622 1152.045894,1921.002174"/>
    <poly id="1036395735" type="amenity.parking" color="184,184,179" fill="1" layer="-1.00" shape="1740.084409,2039.834244 1783.753102,2057.430763 1786.638284,2048.772563 1742.484612,2032.013968 1740.084409,2039.834244"/>
    <poly id="1036407490" type="amenity.waste_disposal" color="237,199,199" fill="1" layer="-1.00" shape="1544.086560,2110.311124 1545.070658,2106.725884 1540.480640,2105.472160 1539.496544,2109.057401 1544.086560,2110.311124"/>
    <poly id="103686985" type="amenity.parking" color="184,184,179" fill="1" layer="-1.00" shape="1136.855428,1364.435528 1160.560574,1374.475311 1167.583623,1358.005978 1215.711209,1378.382981 1208.731790,1394.741772 1180.672332,1382.851650 1173.230629,1400.292955 1154.403290,1392.320441 1152.073992,1397.777055 1127.136728,1387.223098 1136.855428,1364.435528"/>
    <poly id="103686985#1" type="building.yes" color="255,230,230" fill="1" layer="-1.00" shape="1136.855428,1364.435528 1160.560574,1374.475311 1167.583623,1358.005978 1215.711209,1378.382981 1208.731790,1394.741772 1180.672332,1382.851650 1173.230629,1400.292955 1154.403290,1392.320441 1152.073992,1397.777055 1127.136728,1387.223098 1136.855428,1364.435528"/>
    <poly id="1039908831" type="building.yes" color="255,230,230" fill="1" layer="-1.00" shape="2050.075822,666.979709 2049.850859,665.933446 2048.731202,660.979739 2041.531228,662.980574 2027.140828,608.143011 2057.855177,599.663018 2070.390878,655.655196 2064.213542,657.257506 2065.696109,663.070403 2050.075822,666.979709"/>
    <poly id="1039908831#1" type="leisure.sports_hall" color="207,245,201" fill="1" layer="-2.00" shape="2050.075822,666.979709 2049.850859,665.933446 2048.731202,660.979739 2041.531228,662.980574 2027.140828,608.143011 2057.855177,599.663018 2070.390878,655.655196 2064.213542,657.257506 2065.696109,663.070403 2050.075822,666.979709"/>
    <poly id="1039983184" type="landuse.grass" color="194,194,130" fill="1" layer="-3.00" shape="908.865458,978.268541 915.000735,972.290715 914.689899,971.321185 899.313713,970.484207 898.962475,972.211920 898.414137,973.393316 903.685991,976.586391 908.865458,978.268541"/>
    <poly id="1039983185" type="landuse.grass" color="194,194,130" fill="1" layer="-3.00" shape="897.581915,979.211874 900.727810,987.886246 905.773155,982.983483 905.786029,981.895666 899.962485,979.450978 897.581915,979.211874"/>
    <poly id="1039983186" type="landuse.grass" color="194,194,130" fill="1" layer="-3.00" shape="893.887254,980.356038 889.742667,982.249798 890.435237,996.834560 896.025958,991.716209 896.803723,989.782611 893.887254,980.356038"/>
    <poly id="1039983187" type="landuse.grass" color="194,194,130" fill="1" layer="-3.00" shape="884.928937,976.897317 884.733507,993.414373 848.929548,960.607094 848.630257,958.660752 850.172456,956.636275 851.691077,955.888217 855.824113,954.971252 862.727525,955.041807 863.401191,959.756907 865.119926,962.885721 869.387109,968.553673 873.604824,972.666801 878.455412,975.621738 882.910408,976.884535 884.928937,976.897317"/>
    <poly id="1039983188" type="landuse.grass" color="194,194,130" fill="1" layer="-3.00" shape="893.964942,1001.028373 921.413686,970.801278 945.345228,972.594425 906.509365,1012.511689 893.964942,1001.028373"/>
    <poly id="1039983189" type="landuse.grass" color="194,194,130" fill="1" layer="-3.00" shape="977.953351,912.831408 984.809140,911.913457 987.930052,911.950425 989.843149,912.272834 991.434239,914.001348 991.913301,915.805503 992.181789,918.917168 989.912435,923.608520 983.145870,933.464416 965.428514,949.107844 954.625597,960.314782 951.655949,938.908791 957.570200,932.262277 959.134648,928.361892 960.178093,924.766187 968.720337,918.239616 977.953351,912.831408"/>
    <poly id="104205386" type="building.dormitory" color="255,230,230" fill="1" layer="-1.00" shape="1168.676612,1418.112701 1174.330522,1406.234345 1197.119409,1416.996087 1191.465469,1428.874426 1168.676612,1418.112701"/>
    <poly id="104205387" type="building.apartments" color="255,230,230" fill="1" layer="-1.00" shape="1157.423361,1371.540517 1133.646985,1362.499056 1141.670473,1339.624765 1150.572075,1314.229707 1153.199619,1310.086637 1156.895517,1307.399476 1161.610861,1306.001119 1179.994522,1307.784705 1157.423361,1371.540517"/>
    <poly id="104205388" type="amenity.place_of_worship" color="237,199,199" fill="1" layer="-1.00" shape="1147.158934,1514.620100 1145.446968,1513.800455 1144.415742,1514.221184 1141.665866,1512.956253 1141.246030,1511.885503 1139.559502,1511.066161 1141.051618,1507.542413 1135.866411,1504.949677 1135.649404,1505.368968 1133.499105,1504.322089 1130.977921,1503.082080 1131.855090,1501.349515 1126.798657,1498.625094 1128.210233,1495.455643 1114.535929,1489.231837 1115.302854,1487.497963 1114.324563,1487.031184 1117.367929,1480.717095 1118.152364,1481.081658 1119.198029,1478.729393 1121.239281,1479.675058 1155.969803,1496.140358 1150.768542,1507.047145 1151.687863,1507.479924 1150.486915,1510.052376 1149.542286,1509.608196 1147.158934,1514.620100"/>
    <poly id="104205388#1" type="building.yes" color="255,230,230" fill="1" layer="-1.00" shape="1147.158934,1514.620100 1145.446968,1513.800455 1144.415742,1514.221184 1141.665866,1512.956253 1141.246030,1511.885503 1139.559502,1511.066161 1141.051618,1507.542413 1135.866411,1504.949677 1135.649404,1505.368968 1133.499105,1504.322089 1130.977921,1503.082080 1131.855090,1501.349515 1126.798657,1498.625094 1128.210233,1495.455643 1114.535929,1489.231837 1115.302854,1487.497963 1114.324563,1487.031184 1117.367929,1480.717095 1118.152364,1481.081658 1119.198029,1478.729393 1121.239281,1479.675058 1155.969803,1496.140358 1150.768542,1507.047145 1151.687863,1507.479924 1150.486915,1510.052376 1149.542286,1509.608196 1147.158934,1514.620100"/>
    <poly id="104205389" type="building.residential" color="255,230,230" fill="1" layer="-1.00" shape="1111.101885,1429.108455 1122.393897,1398.090938 1146.057377,1406.631447 1134.773626,1437.660132 1111.101885,1429.108455"/>
    <poly id="104205390" type="amenity.parking" color="184,184,179" fill="1" layer="-1.00" shape="1138.799226,1436.486713 1147.155356,1419.167247 1185.476907,1437.507086 1177.120706,1454.826510 1138.799226,1436.486713"/>
    <poly id="104205390#1" type="building.parking" color="255,230,230" fill="1" layer="-1.00" shape="1138.799226,1436.486713 1147.155356,1419.167247 1185.476907,1437.507086 1177.120706,1454.826510 1138.799226,1436.486713"/>
    <poly id="104205391" type="building.residential" color="255,230,230" fill="1" layer="-1.00" shape="1112.193888,1440.722733 1105.027740,1456.402192 1160.949175,1481.778296 1168.115420,1466.098888 1112.193888,1440.722733"/>
    <poly id="104206036" type="building.university" color="255,230,230" fill="1" layer="-1.00" shape="1152.071852,1300.059480 1156.917016,1302.015386 1155.125986,1306.423723 1150.280692,1304.478918 1152.071852,1300.059480"/>
    <poly id="104206036#1" type="historic.ruins" color="128,255,128" fill="1" layer="-1.00" shape="1152.071852,1300.059480 1156.917016,1302.015386 1155.125986,1306.423723 1150.280692,1304.478918 1152.071852,1300.059480"/>
    <poly id="104431157" type="building.apartments" color="255,230,230" fill="1" layer="-1.00" shape="1176.160266,1520.004568 1181.995099,1507.884128 1203.281197,1518.039662 1207.194651,1509.881949 1186.507193,1500.022158 1192.151013,1488.276916 1230.928177,1506.777837 1225.388706,1518.302256 1216.989113,1514.283560 1212.936806,1522.706061 1221.682359,1526.873185 1215.881790,1538.960698 1176.160266,1520.004568"/>
    <poly id="104431158" type="amenity.place_of_worship" color="237,199,199" fill="1" layer="-1.00" shape="1304.853099,1387.468877 1302.312996,1387.105624 1303.311139,1375.915825 1304.840731,1361.401820 1311.245719,1361.988655 1311.554174,1358.872731 1308.175574,1358.410692 1305.058013,1358.107183 1306.268792,1343.300742 1309.039461,1343.533516 1311.811449,1343.655290 1312.966642,1329.958364 1330.624612,1331.422844 1351.069019,1333.220260 1350.955636,1334.195865 1351.850114,1336.004990 1351.715472,1338.767724 1350.398347,1341.116729 1348.892881,1342.186793 1346.804757,1342.328481 1344.849154,1364.841775 1349.727827,1365.399387 1348.295128,1379.603690 1347.093422,1391.501576 1345.347820,1391.369794 1344.266513,1398.850615 1330.870546,1397.747634 1326.623251,1399.728742 1321.649602,1399.314338 1316.850078,1396.381910 1310.169366,1395.447636 1303.994032,1394.808023 1304.853099,1387.468877"/>
    <poly id="104431158#1" type="building.yes" color="255,230,230" fill="1" layer="-1.00" shape="1304.853099,1387.468877 1302.312996,1387.105624 1303.311139,1375.915825 1304.840731,1361.401820 1311.245719,1361.988655 1311.554174,1358.872731 1308.175574,1358.410692 1305.058013,1358.107183 1306.268792,1343.300742 1309.039461,1343.533516 1311.811449,1343.655290 1312.966642,1329.958364 1330.624612,1331.422844 1351.069019,1333.220260 1350.955636,1334.195865 1351.850114,1336.004990 1351.715472,1338.767724 1350.398347,1341.116729 1348.892881,1342.186793 1346.804757,1342.328481 1344.849154,1364.841775 1349.727827,1365.399387 1348.295128,1379.603690 1347.093422,1391.501576 1345.347820,1391.369794 1344.266513,1398.850615 1330.870546,1397.747634 1326.623251,1399.728742 1321.649602,1399.314338 1316.850078,1396.381910 1310.169366,1395.447636 1303.994032,1394.808023 1304.853099,1387.468877"/>
    <poly id="104431159" type="building.cathedral" color="255,230,230" fill="1" layer="-1.00" shape="1276.484767,1409.423956 1285.706649,1389.938983 1300.795252,1397.056952 1311.110041,1401.931143 1309.760503,1404.868162 1308.465676,1407.483881 1327.669842,1416.560343 1323.033480,1426.296951 1303.745060,1417.175091 1301.744470,1421.369971 1276.484767,1409.423956"/>
    <poly id="104431160" type="building.apartments" color="255,230,230" fill="1" layer="-1.00" shape="1220.739493,1559.123671 1228.366751,1543.194453 1247.047135,1552.075766 1258.405393,1528.364176 1275.002690,1536.254951 1259.322049,1568.985279 1256.008592,1575.895598 1220.739493,1559.123671"/>
    <poly id="104431161" type="building.cathedral" color="255,230,230" fill="1" layer="-1.00" shape="1251.977011,1359.885342 1266.960791,1327.302141 1270.486944,1328.909394 1272.602796,1324.294010 1278.786119,1327.120736 1274.842045,1335.699916 1282.155776,1339.039659 1273.014162,1358.903050 1268.281682,1356.748575 1264.259333,1365.493357 1251.977011,1359.885342"/>
    <poly id="104431162" type="building.apartments" color="255,230,230" fill="1" layer="-1.00" shape="1201.122797,1466.257677 1219.904581,1428.779216 1246.531398,1442.017985 1249.163533,1436.775929 1262.350372,1443.338342 1240.936290,1486.058757 1201.122797,1466.257677"/>
    <poly id="104431165" type="building.retail" color="255,230,230" fill="1" layer="-1.00" shape="1217.926107,1593.194830 1230.552594,1580.511203 1220.409429,1570.487943 1207.774463,1583.171486 1217.926107,1593.194830"/>