<?xml version="1.0" encoding="UTF-8"?>

<!-- generated on 2022-10-26 16:35:57 by Eclipse SUMO netedit Version 1.14.1
<configuration xmlns:xsi="http://www.w3.org/2001/XMLSchema-instance" xsi:noNamespaceSchemaLocation="http://sumo.dlr.de/xsd/netconvertConfiguration.xsd">

    <input>
        <sumo-net-file value="C:\Users\connp\OneDrive\Documents\_Pitt\CS1980-Team_Project\4LaneIntersection\network.net.xml"/>
    </input>

    <output>
        <output-file value="C:\Users\connp\OneDrive\Documents\_Pitt\CS1980-Team_Project\4LaneIntersection\network.net.xml"/>
    </output>

    <processing>
        <geometry.min-radius.fix.railways value="false"/>
        <geometry.max-grade.fix value="false"/>
        <offset.disable-normalization value="true"/>
        <lefthand value="false"/>
    </processing>

    <junctions>
        <no-turnarounds value="true"/>
        <junctions.corner-detail value="5"/>
        <junctions.limit-turn-speed value="5.5"/>
        <rectangular-lane-cut value="false"/>
    </junctions>

    <pedestrian>
        <walkingareas value="false"/>
    </pedestrian>

    <netedit>
        <route-files value="C:\Users\connp\OneDrive\Documents\_Pitt\CS1980-Team_Project\4LaneIntersection\routes.rou.xml"/>
    </netedit>

</configuration>
-->

<net version="1.9" junctionCornerDetail="5" limitTurnSpeed="5.50" xmlns:xsi="http://www.w3.org/2001/XMLSchema-instance" xsi:noNamespaceSchemaLocation="http://sumo.dlr.de/xsd/net_file.xsd">

    <location netOffset="0.00,0.00" convBoundary="-100.00,-100.00,100.00,100.10" origBoundary="-10000000000.00,-10000000000.00,10000000000.00,10000000000.00" projParameter="!"/>

    <edge id=":J4_0" function="internal">
        <lane id=":J4_0_0" index="0" speed="6.52" length="9.05" shape="-11.18,16.82 -11.54,14.36 -12.59,12.61 -14.34,11.55 -16.79,11.20"/>
    </edge>
    <edge id=":J4_1" function="internal">
        <lane id=":J4_1_0" index="0" speed="13.89" length="33.64" shape="-11.18,16.82 -11.18,-16.82"/>
        <lane id=":J4_1_1" index="1" speed="13.89" length="33.64" shape="-7.98,16.82 -7.98,-16.82"/>
        <lane id=":J4_1_2" index="2" speed="13.89" length="33.64" shape="-4.78,16.82 -4.78,-16.82"/>
        <lane id=":J4_1_3" index="3" speed="13.89" length="33.64" shape="-1.58,16.81 -1.58,-16.81"/>
    </edge>
    <edge id=":J4_5" function="internal">
        <lane id=":J4_5_0" index="0" speed="11.36" length="5.05" shape="-1.58,16.81 -0.87,11.82"/>
    </edge>
    <edge id=":J4_24" function="internal">
        <lane id=":J4_24_0" index="0" speed="11.36" length="24.64" shape="-0.87,11.82 -0.44,8.76 3.01,3.00 8.76,-0.45 16.81,-1.60"/>
    </edge>
    <edge id=":J4_6" function="internal">
        <lane id=":J4_6_0" index="0" speed="6.51" length="9.03" shape="16.81,11.20 14.36,11.55 12.61,12.60 11.56,14.35 11.22,16.80"/>
    </edge>
    <edge id=":J4_7" function="internal">
        <lane id=":J4_7_0" index="0" speed="13.89" length="33.60" shape="16.81,11.20 -16.79,11.20"/>
        <lane id=":J4_7_1" index="1" speed="13.89" length="33.60" shape="16.81,8.00 -16.79,8.00"/>
        <lane id=":J4_7_2" index="2" speed="13.89" length="33.60" shape="16.81,4.80 -16.79,4.80"/>
        <lane id=":J4_7_3" index="3" speed="13.89" length="33.60" shape="16.81,1.60 -16.79,1.60"/>
    </edge>
    <edge id=":J4_11" function="internal">
        <lane id=":J4_11_0" index="0" speed="11.36" length="5.01" shape="16.81,1.60 11.85,0.89"/>
    </edge>
    <edge id=":J4_25" function="internal">
        <lane id=":J4_25_0" index="0" speed="11.36" length="24.68" shape="11.85,0.89 8.76,0.45 3.01,-3.00 -0.44,-8.76 -1.58,-16.81"/>
    </edge>
    <edge id=":J4_12" function="internal">
        <lane id=":J4_12_0" index="0" speed="6.51" length="9.03" shape="11.22,-16.80 11.56,-14.35 12.61,-12.60 14.36,-11.55 16.81,-11.20"/>
    </edge>
    <edge id=":J4_13" function="internal">
        <lane id=":J4_13_0" index="0" speed="13.89" length="33.61" shape="11.22,-16.80 11.22,16.80"/>
        <lane id=":J4_13_1" index="1" speed="13.89" length="33.61" shape="8.02,-16.80 8.02,16.80"/>
        <lane id=":J4_13_2" index="2" speed="13.89" length="33.61" shape="4.82,-16.81 4.82,16.81"/>
        <lane id=":J4_13_3" index="3" speed="13.89" length="33.61" shape="1.62,-16.81 1.62,16.81"/>
    </edge>
    <edge id=":J4_17" function="internal">
        <lane id=":J4_17_0" index="0" speed="11.37" length="4.99" shape="1.62,-16.81 0.91,-11.87"/>
    </edge>
    <edge id=":J4_26" function="internal">
        <lane id=":J4_26_0" index="0" speed="11.37" length="24.69" shape="0.91,-11.87 0.46,-8.76 -2.99,-3.00 -8.74,0.45 -16.79,1.60"/>
    </edge>
    <edge id=":J4_18" function="internal">
        <lane id=":J4_18_0" index="0" speed="6.52" length="9.05" shape="-16.79,-11.20 -14.34,-11.55 -12.59,-12.61 -11.54,-14.36 -11.18,-16.82"/>
    </edge>
    <edge id=":J4_19" function="internal">
        <lane id=":J4_19_0" index="0" speed="13.89" length="33.60" shape="-16.79,-11.20 16.81,-11.20"/>
        <lane id=":J4_19_1" index="1" speed="13.89" length="33.60" shape="-16.79,-8.00 16.81,-8.00"/>
        <lane id=":J4_19_2" index="2" speed="13.89" length="33.60" shape="-16.79,-4.80 16.81,-4.80"/>
        <lane id=":J4_19_3" index="3" speed="13.89" length="33.60" shape="-16.79,-1.60 16.81,-1.60"/>
    </edge>
    <edge id=":J4_23" function="internal">
        <lane id=":J4_23_0" index="0" speed="11.37" length="5.01" shape="-16.79,-1.60 -11.83,-0.89"/>
    </edge>
    <edge id=":J4_27" function="internal">
        <lane id=":J4_27_0" index="0" speed="11.37" length="24.67" shape="-11.83,-0.89 -8.74,-0.45 -2.99,3.00 0.46,8.76 1.62,16.81"/>
    </edge>

    <edge id="EastToWest_In" from="J5" to="J4" priority="-1">
        <lane id="EastToWest_In_0" index="0" speed="13.89" length="83.19" shape="100.00,11.20 16.81,11.20"/>
        <lane id="EastToWest_In_1" index="1" speed="13.89" length="83.19" shape="100.00,8.00 16.81,8.00"/>
        <lane id="EastToWest_In_2" index="2" speed="13.89" length="83.19" shape="100.00,4.80 16.81,4.80"/>
        <lane id="EastToWest_In_3" index="3" speed="13.89" length="83.19" shape="100.00,1.60 16.81,1.60"/>
    </edge>
    <edge id="EastToWest_Out" from="J4" to="J7" priority="-1">
        <lane id="EastToWest_Out_0" index="0" speed="13.89" length="83.21" shape="-16.79,11.20 -100.00,11.20"/>
        <lane id="EastToWest_Out_1" index="1" speed="13.89" length="83.21" shape="-16.79,8.00 -100.00,8.00"/>
        <lane id="EastToWest_Out_2" index="2" speed="13.89" length="83.21" shape="-16.79,4.80 -100.00,4.80"/>
        <lane id="EastToWest_Out_3" index="3" speed="13.89" length="83.21" shape="-16.79,1.60 -100.00,1.60"/>
    </edge>
    <edge id="NorthToSouth_In" from="J6" to="J4" priority="-1" shape="0.10,100.10 0.00,0.00">
        <lane id="NorthToSouth_In_0" index="0" speed="13.89" length="83.19" shape="-11.10,100.01 -11.18,16.82"/>
        <lane id="NorthToSouth_In_1" index="1" speed="13.89" length="83.19" shape="-7.90,100.01 -7.98,16.82"/>
        <lane id="NorthToSouth_In_2" index="2" speed="13.89" length="83.19" shape="-4.70,100.00 -4.78,16.82"/>
        <lane id="NorthToSouth_In_3" index="3" speed="13.89" length="83.19" shape="-1.50,100.00 -1.58,16.81"/>
    </edge>
    <edge id="NorthToSouth_Out" from="J4" to="J8" priority="-1" shape="0.00,0.00 0.10,-99.90">
        <lane id="NorthToSouth_Out_0" index="0" speed="13.89" length="83.19" shape="-11.18,-16.82 -11.10,-100.01"/>
        <lane id="NorthToSouth_Out_1" index="1" speed="13.89" length="83.19" shape="-7.98,-16.82 -7.90,-100.01"/>
        <lane id="NorthToSouth_Out_2" index="2" speed="13.89" length="83.19" shape="-4.78,-16.82 -4.70,-100.00"/>
        <lane id="NorthToSouth_Out_3" index="3" speed="13.89" length="83.19" shape="-1.58,-16.81 -1.50,-100.00"/>
    </edge>
    <edge id="SouthToNorth_In" from="J8" to="J4" priority="-1" shape="0.10,-99.90 0.00,0.00">
        <lane id="SouthToNorth_In_0" index="0" speed="13.89" length="83.19" shape="11.30,-99.99 11.22,-16.80"/>
        <lane id="SouthToNorth_In_1" index="1" speed="13.89" length="83.19" shape="8.10,-99.99 8.02,-16.80"/>
        <lane id="SouthToNorth_In_2" index="2" speed="13.89" length="83.19" shape="4.90,-100.00 4.82,-16.81"/>
        <lane id="SouthToNorth_In_3" index="3" speed="13.89" length="83.19" shape="1.70,-100.00 1.62,-16.81"/>
    </edge>
    <edge id="SouthToNorth_Out" from="J4" to="J6" priority="-1" shape="0.00,0.00 0.10,100.10">
        <lane id="SouthToNorth_Out_0" index="0" speed="13.89" length="83.19" shape="11.22,16.80 11.30,99.99"/>
        <lane id="SouthToNorth_Out_1" index="1" speed="13.89" length="83.19" shape="8.02,16.80 8.10,99.99"/>
        <lane id="SouthToNorth_Out_2" index="2" speed="13.89" length="83.19" shape="4.82,16.81 4.90,100.00"/>
        <lane id="SouthToNorth_Out_3" index="3" speed="13.89" length="83.19" shape="1.62,16.81 1.70,100.00"/>
    </edge>
    <edge id="WestToEast_In" from="J7" to="J4" priority="-1">
        <lane id="WestToEast_In_0" index="0" speed="13.89" length="83.21" shape="-100.00,-11.20 -16.79,-11.20"/>
        <lane id="WestToEast_In_1" index="1" speed="13.89" length="83.21" shape="-100.00,-8.00 -16.79,-8.00"/>
        <lane id="WestToEast_In_2" index="2" speed="13.89" length="83.21" shape="-100.00,-4.80 -16.79,-4.80"/>
        <lane id="WestToEast_In_3" index="3" speed="13.89" length="83.21" shape="-100.00,-1.60 -16.79,-1.60"/>
    </edge>
    <edge id="WestToEast_Out" from="J4" to="J5" priority="-1">
        <lane id="WestToEast_Out_0" index="0" speed="13.89" length="83.19" shape="16.81,-11.20 100.00,-11.20"/>
        <lane id="WestToEast_Out_1" index="1" speed="13.89" length="83.19" shape="16.81,-8.00 100.00,-8.00"/>
        <lane id="WestToEast_Out_2" index="2" speed="13.89" length="83.19" shape="16.81,-4.80 100.00,-4.80"/>
        <lane id="WestToEast_Out_3" index="3" speed="13.89" length="83.19" shape="16.81,-1.60 100.00,-1.60"/>
    </edge>

    <tlLogic id="J4" type="static" programID="0" offset="0">
        <phase duration="42" state="rrrrrrGGGGGgrrrrrrGGGGGg"/>
        <phase duration="3"  state="rrrrrryyyyyyrrrrrryyyyyy"/>
        <phase duration="42" state="GGGGGgrrrrrrGGGGGgrrrrrr"/>
        <phase duration="3"  state="yyyyyyrrrrrryyyyyyrrrrrr"/>
    </tlLogic>

    <junction id="J4" type="traffic_light" x="0.00" y="0.00" incLanes="NorthToSouth_In_0 NorthToSouth_In_1 NorthToSouth_In_2 NorthToSouth_In_3 EastToWest_In_0 EastToWest_In_1 EastToWest_In_2 EastToWest_In_3 SouthToNorth_In_0 SouthToNorth_In_1 SouthToNorth_In_2 SouthToNorth_In_3 WestToEast_In_0 WestToEast_In_1 WestToEast_In_2 WestToEast_In_3" intLanes=":J4_0_0 :J4_1_0 :J4_1_1 :J4_1_2 :J4_1_3 :J4_24_0 :J4_6_0 :J4_7_0 :J4_7_1 :J4_7_2 :J4_7_3 :J4_25_0 :J4_12_0 :J4_13_0 :J4_13_1 :J4_13_2 :J4_13_3 :J4_26_0 :J4_18_0 :J4_19_0 :J4_19_1 :J4_19_2 :J4_19_3 :J4_27_0" shape="-12.78,16.83 12.82,16.80 13.26,14.58 13.81,13.80 14.59,13.24 15.59,12.91 16.81,12.80 16.81,-12.80 14.59,-13.24 13.81,-13.80 13.26,-14.58 12.93,-15.58 12.82,-16.80 -12.78,-16.83 -13.23,-14.59 -13.79,-13.81 -14.56,-13.25 -15.56,-12.91 -16.79,-12.80 -16.79,12.80 -14.56,13.25 -13.79,13.81 -13.23,14.59 -12.90,15.60">
        <request index="0"  response="000000000000011110000000" foes="000000000000011110000000" cont="0"/>
        <request index="1"  response="111111000000111110000000" foes="111111100000111110000000" cont="0"/>
        <request index="2"  response="111111000000111110000000" foes="111111100000111110000000" cont="0"/>
        <request index="3"  response="111111000000111110000000" foes="111111100000111110000000" cont="0"/>
        <request index="4"  response="111111000000111110000000" foes="111111100000111110000000" cont="0"/>
        <request index="5"  response="111110011110111110000000" foes="111110011110111110000000" cont="1"/>
        <request index="6"  response="000000000000000000000000" foes="000000011110000000000000" cont="0"/>
        <request index="7"  response="000000100000000000100000" foes="100000111110000000111111" cont="0"/>
        <request index="8"  response="000000100000000000100000" foes="100000111110000000111111" cont="0"/>
        <request index="9"  response="000000100000000000100000" foes="100000111110000000111111" cont="0"/>
        <request index="10" response="000000100000000000100000" foes="100000111110000000111111" cont="0"/>
        <request index="11" response="011110100000000000100000" foes="011110111110000000111110" cont="1"/>
        <request index="12" response="011110000000000000000000" foes="011110000000000000000000" cont="0"/>
        <request index="13" response="111110000000111111000000" foes="111110000000111111100000" cont="0"/>
        <request index="14" response="111110000000111111000000" foes="111110000000111111100000" cont="0"/>
        <request index="15" response="111110000000111111000000" foes="111110000000111111100000" cont="0"/>
        <request index="16" response="111110000000111111000000" foes="111110000000111111100000" cont="0"/>
        <request index="17" response="111110000000111110011110" foes="111110000000111110011110" cont="1"/>
        <request index="18" response="000000000000000000000000" foes="000000000000000000011110" cont="0"/>
        <request index="19" response="000000100000000000100000" foes="000000111111100000111110" cont="0"/>
        <request index="20" response="000000100000000000100000" foes="000000111111100000111110" cont="0"/>
        <request index="21" response="000000100000000000100000" foes="000000111111100000111110" cont="0"/>
        <request index="22" response="000000100000000000100000" foes="000000111111100000111110" cont="0"/>
        <request index="23" response="000000100000011110100000" foes="000000111110011110111110" cont="1"/>
    </junction>
    <junction id="J5" type="dead_end" x="100.00" y="0.00" incLanes="WestToEast_Out_0 WestToEast_Out_1 WestToEast_Out_2 WestToEast_Out_3" intLanes="" shape="100.00,0.00 100.00,-12.80 100.00,0.00"/>
    <junction id="J6" type="dead_end" x="0.00" y="100.00" incLanes="SouthToNorth_Out_0 SouthToNorth_Out_1 SouthToNorth_Out_2 SouthToNorth_Out_3" intLanes="" shape="0.10,100.00 12.90,99.99 0.10,100.00"/>
    <junction id="J7" type="dead_end" x="-100.00" y="0.00" incLanes="EastToWest_Out_0 EastToWest_Out_1 EastToWest_Out_2 EastToWest_Out_3" intLanes="" shape="-100.00,0.00 -100.00,12.80 -100.00,0.00"/>
    <junction id="J8" type="dead_end" x="0.00" y="-100.00" incLanes="NorthToSouth_Out_0 NorthToSouth_Out_1 NorthToSouth_Out_2 NorthToSouth_Out_3" intLanes="" shape="0.10,-100.00 -12.70,-100.01 0.10,-100.00"/>

    <junction id=":J4_24_0" type="internal" x="-0.87" y="11.82" incLanes=":J4_5_0 SouthToNorth_In_0 SouthToNorth_In_1 SouthToNorth_In_2 SouthToNorth_In_3" intLanes=":J4_7_0 :J4_7_1 :J4_7_2 :J4_7_3 :J4_11_0 :J4_12_0 :J4_13_0 :J4_13_1 :J4_13_2 :J4_13_3 :J4_19_0 :J4_19_1 :J4_19_2 :J4_19_3 :J4_23_0"/>
    <junction id=":J4_25_0" type="internal" x="11.85" y="0.89" incLanes=":J4_11_0 WestToEast_In_0 WestToEast_In_1 WestToEast_In_2 WestToEast_In_3" intLanes=":J4_1_0 :J4_1_1 :J4_1_2 :J4_1_3 :J4_5_0 :J4_13_0 :J4_13_1 :J4_13_2 :J4_13_3 :J4_17_0 :J4_18_0 :J4_19_0 :J4_19_1 :J4_19_2 :J4_19_3"/>
    <junction id=":J4_26_0" type="internal" x="0.91" y="-11.87" incLanes=":J4_17_0 NorthToSouth_In_0 NorthToSouth_In_1 NorthToSouth_In_2 NorthToSouth_In_3" intLanes=":J4_0_0 :J4_1_0 :J4_1_1 :J4_1_2 :J4_1_3 :J4_7_0 :J4_7_1 :J4_7_2 :J4_7_3 :J4_11_0 :J4_19_0 :J4_19_1 :J4_19_2 :J4_19_3 :J4_23_0"/>
    <junction id=":J4_27_0" type="internal" x="-11.83" y="-0.89" incLanes=":J4_23_0 EastToWest_In_0 EastToWest_In_1 EastToWest_In_2 EastToWest_In_3" intLanes=":J4_1_0 :J4_1_1 :J4_1_2 :J4_1_3 :J4_5_0 :J4_6_0 :J4_7_0 :J4_7_1 :J4_7_2 :J4_7_3 :J4_13_0 :J4_13_1 :J4_13_2 :J4_13_3 :J4_17_0"/>

    <connection from="EastToWest_In" to="SouthToNorth_Out" fromLane="0" toLane="0" via=":J4_6_0" tl="J4" linkIndex="6" dir="r" state="O"/>
    <connection from="EastToWest_In" to="EastToWest_Out" fromLane="0" toLane="0" via=":J4_7_0" tl="J4" linkIndex="7" dir="s" state="O"/>
    <connection from="EastToWest_In" to="EastToWest_Out" fromLane="1" toLane="1" via=":J4_7_1" tl="J4" linkIndex="8" dir="s" state="O"/>
    <connection from="EastToWest_In" to="EastToWest_Out" fromLane="2" toLane="2" via=":J4_7_2" tl="J4" linkIndex="9" dir="s" state="O"/>
    <connection from="EastToWest_In" to="EastToWest_Out" fromLane="3" toLane="3" via=":J4_7_3" tl="J4" linkIndex="10" dir="s" state="O"/>
    <connection from="EastToWest_In" to="NorthToSouth_Out" fromLane="3" toLane="3" via=":J4_11_0" tl="J4" linkIndex="11" dir="l" state="o"/>
    <connection from="NorthToSouth_In" to="EastToWest_Out" fromLane="0" toLane="0" via=":J4_0_0" tl="J4" linkIndex="0" dir="r" state="o"/>
    <connection from="NorthToSouth_In" to="NorthToSouth_Out" fromLane="0" toLane="0" via=":J4_1_0" tl="J4" linkIndex="1" dir="s" state="o"/>
    <connection from="NorthToSouth_In" to="NorthToSouth_Out" fromLane="1" toLane="1" via=":J4_1_1" tl="J4" linkIndex="2" dir="s" state="o"/>
    <connection from="NorthToSouth_In" to="NorthToSouth_Out" fromLane="2" toLane="2" via=":J4_1_2" tl="J4" linkIndex="3" dir="s" state="o"/>
    <connection from="NorthToSouth_In" to="NorthToSouth_Out" fromLane="3" toLane="3" via=":J4_1_3" tl="J4" linkIndex="4" dir="s" state="o"/>
    <connection from="NorthToSouth_In" to="WestToEast_Out" fromLane="3" toLane="3" via=":J4_5_0" tl="J4" linkIndex="5" dir="l" state="o"/>
    <connection from="SouthToNorth_In" to="WestToEast_Out" fromLane="0" toLane="0" via=":J4_12_0" tl="J4" linkIndex="12" dir="r" state="o"/>
    <connection from="SouthToNorth_In" to="SouthToNorth_Out" fromLane="0" toLane="0" via=":J4_13_0" tl="J4" linkIndex="13" dir="s" state="o"/>
    <connection from="SouthToNorth_In" to="SouthToNorth_Out" fromLane="1" toLane="1" via=":J4_13_1" tl="J4" linkIndex="14" dir="s" state="o"/>
    <connection from="SouthToNorth_In" to="SouthToNorth_Out" fromLane="2" toLane="2" via=":J4_13_2" tl="J4" linkIndex="15" dir="s" state="o"/>
    <connection from="SouthToNorth_In" to="SouthToNorth_Out" fromLane="3" toLane="3" via=":J4_13_3" tl="J4" linkIndex="16" dir="s" state="o"/>
    <connection from="SouthToNorth_In" to="EastToWest_Out" fromLane="3" toLane="3" via=":J4_17_0" tl="J4" linkIndex="17" dir="l" state="o"/>
    <connection from="WestToEast_In" to="NorthToSouth_Out" fromLane="0" toLane="0" via=":J4_18_0" tl="J4" linkIndex="18" dir="r" state="O"/>
    <connection from="WestToEast_In" to="WestToEast_Out" fromLane="0" toLane="0" via=":J4_19_0" tl="J4" linkIndex="19" dir="s" state="O"/>
    <connection from="WestToEast_In" to="WestToEast_Out" fromLane="1" toLane="1" via=":J4_19_1" tl="J4" linkIndex="20" dir="s" state="O"/>
    <connection from="WestToEast_In" to="WestToEast_Out" fromLane="2" toLane="2" via=":J4_19_2" tl="J4" linkIndex="21" dir="s" state="O"/>
    <connection from="WestToEast_In" to="WestToEast_Out" fromLane="3" toLane="3" via=":J4_19_3" tl="J4" linkIndex="22" dir="s" state="O"/>
    <connection from="WestToEast_In" to="SouthToNorth_Out" fromLane="3" toLane="3" via=":J4_23_0" tl="J4" linkIndex="23" dir="l" state="o"/>

    <connection from=":J4_0" to="EastToWest_Out" fromLane="0" toLane="0" dir="r" state="M"/>
    <connection from=":J4_1" to="NorthToSouth_Out" fromLane="0" toLane="0" dir="s" state="M"/>
    <connection from=":J4_1" to="NorthToSouth_Out" fromLane="1" toLane="1" dir="s" state="M"/>
    <connection from=":J4_1" to="NorthToSouth_Out" fromLane="2" toLane="2" dir="s" state="M"/>
    <connection from=":J4_1" to="NorthToSouth_Out" fromLane="3" toLane="3" dir="s" state="M"/>
    <connection from=":J4_5" to="WestToEast_Out" fromLane="0" toLane="3" via=":J4_24_0" dir="l" state="m"/>
    <connection from=":J4_24" to="WestToEast_Out" fromLane="0" toLane="3" dir="l" state="M"/>
    <connection from=":J4_6" to="SouthToNorth_Out" fromLane="0" toLane="0" dir="r" state="M"/>
    <connection from=":J4_7" to="EastToWest_Out" fromLane="0" toLane="0" dir="s" state="M"/>
    <connection from=":J4_7" to="EastToWest_Out" fromLane="1" toLane="1" dir="s" state="M"/>
    <connection from=":J4_7" to="EastToWest_Out" fromLane="2" toLane="2" dir="s" state="M"/>
    <connection from=":J4_7" to="EastToWest_Out" fromLane="3" toLane="3" dir="s" state="M"/>
    <connection from=":J4_11" to="NorthToSouth_Out" fromLane="0" toLane="3" via=":J4_25_0" dir="l" state="m"/>
    <connection from=":J4_25" to="NorthToSouth_Out" fromLane="0" toLane="3" dir="l" state="M"/>
    <connection from=":J4_12" to="WestToEast_Out" fromLane="0" toLane="0" dir="r" state="M"/>
    <connection from=":J4_13" to="SouthToNorth_Out" fromLane="0" toLane="0" dir="s" state="M"/>
    <connection from=":J4_13" to="SouthToNorth_Out" fromLane="1" toLane="1" dir="s" state="M"/>
    <connection from=":J4_13" to="SouthToNorth_Out" fromLane="2" toLane="2" dir="s" state="M"/>
    <connection from=":J4_13" to="SouthToNorth_Out" fromLane="3" toLane="3" dir="s" state="M"/>
    <connection from=":J4_17" to="EastToWest_Out" fromLane="0" toLane="3" via=":J4_26_0" dir="l" state="m"/>
    <connection from=":J4_26" to="EastToWest_Out" fromLane="0" toLane="3" dir="l" state="M"/>
    <connection from=":J4_18" to="NorthToSouth_Out" fromLane="0" toLane="0" dir="r" state="M"/>
    <connection from=":J4_19" to="WestToEast_Out" fromLane="0" toLane="0" dir="s" state="M"/>
    <connection from=":J4_19" to="WestToEast_Out" fromLane="1" toLane="1" dir="s" state="M"/>
    <connection from=":J4_19" to="WestToEast_Out" fromLane="2" toLane="2" dir="s" state="M"/>
    <connection from=":J4_19" to="WestToEast_Out" fromLane="3" toLane="3" dir="s" state="M"/>
    <connection from=":J4_23" to="SouthToNorth_Out" fromLane="0" toLane="3" via=":J4_27_0" dir="l" state="m"/>
    <connection from=":J4_27" to="SouthToNorth_Out" fromLane="0" toLane="3" dir="l" state="M"/>

</net>
