<?xml version="1.0" encoding="UTF-8"?>

<configuration xmlns:xsi="http://www.w3.org/2001/XMLSchema-instance" xsi:noNamespaceSchemaLocation="http://sumo.dlr.de/xsd/duarouterConfiguration.xsd">

    <input>
        <net-file value="test-network-1.net.xml"/>
        <route-files value="test-network-1-routes.rou.xml"/>
    </input>

    <time>
        <begin value="0"/>
        <end value="3000"/>
    </time>

</configuration>