<?xml version="1.0" encoding="UTF-8"?>

<!-- generated on 2022-10-28 15:21:48 by Eclipse SUMO netedit Version 1.14.1
<configuration xmlns:xsi="http://www.w3.org/2001/XMLSchema-instance" xsi:noNamespaceSchemaLocation="http://sumo.dlr.de/xsd/netconvertConfiguration.xsd">

    <output>
        <output-file value="C:\Users\difra\OneDrive\Documents\Pitt2022\CS1980\team-project\dontes-test-simulation\test-network-1.net.xml"/>
    </output>

    <processing>
        <offset.disable-normalization value="true"/>
    </processing>

    <junctions>
        <no-turnarounds value="true"/>
    </junctions>

</configuration>
-->

<net version="1.9" junctionCornerDetail="5" limitTurnSpeed="5.50" xmlns:xsi="http://www.w3.org/2001/XMLSchema-instance" xsi:noNamespaceSchemaLocation="http://sumo.dlr.de/xsd/net_file.xsd">

    <location netOffset="0.00,0.00" convBoundary="-100.00,0.00,100.00,200.00" origBoundary="10000000000.00,10000000000.00,-10000000000.00,-10000000000.00" projParameter="!"/>

    <edge id=":J0_0" function="internal">
        <lane id=":J0_0_0" index="0" speed="6.51" length="9.03" shape="-4.80,110.40 -5.15,107.95 -6.20,106.20 -7.95,105.15 -10.40,104.80"/>
    </edge>
    <edge id=":J0_1" function="internal">
        <lane id=":J0_1_0" index="0" speed="13.89" length="20.80" shape="-4.80,110.40 -4.80,89.60"/>
        <lane id=":J0_1_1" index="1" speed="13.89" length="20.80" shape="-1.60,110.40 -1.60,89.60"/>
    </edge>
    <edge id=":J0_3" function="internal">
        <lane id=":J0_3_0" index="0" speed="9.26" length="5.01" shape="-1.60,110.40 -0.89,105.44"/>
    </edge>
    <edge id=":J0_16" function="internal">
        <lane id=":J0_16_0" index="0" speed="9.26" length="14.34" shape="-0.89,105.44 -0.85,105.15 1.40,101.40 5.15,99.15 10.40,98.40"/>
    </edge>
    <edge id=":J0_4" function="internal">
        <lane id=":J0_4_0" index="0" speed="6.51" length="9.03" shape="10.40,104.80 7.95,105.15 6.20,106.20 5.15,107.95 4.80,110.40"/>
    </edge>
    <edge id=":J0_5" function="internal">
        <lane id=":J0_5_0" index="0" speed="13.89" length="20.80" shape="10.40,104.80 -10.40,104.80"/>
        <lane id=":J0_5_1" index="1" speed="13.89" length="20.80" shape="10.40,101.60 -10.40,101.60"/>
    </edge>
    <edge id=":J0_7" function="internal">
        <lane id=":J0_7_0" index="0" speed="9.26" length="5.01" shape="10.40,101.60 5.44,100.89"/>
    </edge>
    <edge id=":J0_17" function="internal">
        <lane id=":J0_17_0" index="0" speed="9.26" length="14.34" shape="5.44,100.89 5.15,100.85 1.40,98.60 -0.85,94.85 -1.60,89.60"/>
    </edge>
    <edge id=":J0_8" function="internal">
        <lane id=":J0_8_0" index="0" speed="6.51" length="9.03" shape="4.80,89.60 5.15,92.05 6.20,93.80 7.95,94.85 10.40,95.20"/>
    </edge>
    <edge id=":J0_9" function="internal">
        <lane id=":J0_9_0" index="0" speed="13.89" length="20.80" shape="4.80,89.60 4.80,110.40"/>
        <lane id=":J0_9_1" index="1" speed="13.89" length="20.80" shape="1.60,89.60 1.60,110.40"/>
    </edge>
    <edge id=":J0_11" function="internal">
        <lane id=":J0_11_0" index="0" speed="9.26" length="5.01" shape="1.60,89.60 0.89,94.56"/>
    </edge>
    <edge id=":J0_18" function="internal">
        <lane id=":J0_18_0" index="0" speed="9.26" length="14.34" shape="0.89,94.56 0.85,94.85 -1.40,98.60 -5.15,100.85 -10.40,101.60"/>
    </edge>
    <edge id=":J0_12" function="internal">
        <lane id=":J0_12_0" index="0" speed="6.51" length="9.03" shape="-10.40,95.20 -7.95,94.85 -6.20,93.80 -5.15,92.05 -4.80,89.60"/>
    </edge>
    <edge id=":J0_13" function="internal">
        <lane id=":J0_13_0" index="0" speed="13.89" length="20.80" shape="-10.40,95.20 10.40,95.20"/>
        <lane id=":J0_13_1" index="1" speed="13.89" length="20.80" shape="-10.40,98.40 10.40,98.40"/>
    </edge>
    <edge id=":J0_15" function="internal">
        <lane id=":J0_15_0" index="0" speed="9.26" length="5.01" shape="-10.40,98.40 -5.44,99.11"/>
    </edge>
    <edge id=":J0_19" function="internal">
        <lane id=":J0_19_0" index="0" speed="9.26" length="14.34" shape="-5.44,99.11 -5.15,99.15 -1.40,101.40 0.85,105.15 1.60,110.40"/>
    </edge>

    <edge id="-E0" from="J1" to="J0" priority="-1">
        <lane id="-E0_0" index="0" speed="13.89" length="89.60" shape="-4.80,200.00 -4.80,110.40"/>
        <lane id="-E0_1" index="1" speed="13.89" length="89.60" shape="-1.60,200.00 -1.60,110.40"/>
    </edge>
    <edge id="-E1" from="J2" to="J0" priority="-1">
        <lane id="-E1_0" index="0" speed="13.89" length="89.60" shape="100.00,104.80 10.40,104.80"/>
        <lane id="-E1_1" index="1" speed="13.89" length="89.60" shape="100.00,101.60 10.40,101.60"/>
    </edge>
    <edge id="-E2" from="J3" to="J0" priority="-1">
        <lane id="-E2_0" index="0" speed="13.89" length="89.60" shape="4.80,0.00 4.80,89.60"/>
        <lane id="-E2_1" index="1" speed="13.89" length="89.60" shape="1.60,0.00 1.60,89.60"/>
    </edge>
    <edge id="-E3" from="J4" to="J0" priority="-1">
        <lane id="-E3_0" index="0" speed="13.89" length="89.60" shape="-100.00,95.20 -10.40,95.20"/>
        <lane id="-E3_1" index="1" speed="13.89" length="89.60" shape="-100.00,98.40 -10.40,98.40"/>
    </edge>
    <edge id="E0" from="J0" to="J1" priority="-1">
        <lane id="E0_0" index="0" speed="13.89" length="89.60" shape="4.80,110.40 4.80,200.00"/>
        <lane id="E0_1" index="1" speed="13.89" length="89.60" shape="1.60,110.40 1.60,200.00"/>
    </edge>
    <edge id="E1" from="J0" to="J2" priority="-1">
        <lane id="E1_0" index="0" speed="13.89" length="89.60" shape="10.40,95.20 100.00,95.20"/>
        <lane id="E1_1" index="1" speed="13.89" length="89.60" shape="10.40,98.40 100.00,98.40"/>
    </edge>
    <edge id="E2" from="J0" to="J3" priority="-1">
        <lane id="E2_0" index="0" speed="13.89" length="89.60" shape="-4.80,89.60 -4.80,0.00"/>
        <lane id="E2_1" index="1" speed="13.89" length="89.60" shape="-1.60,89.60 -1.60,0.00"/>
    </edge>
    <edge id="E3" from="J0" to="J4" priority="-1">
        <lane id="E3_0" index="0" speed="13.89" length="89.60" shape="-10.40,104.80 -100.00,104.80"/>
        <lane id="E3_1" index="1" speed="13.89" length="89.60" shape="-10.40,101.60 -100.00,101.60"/>
    </edge>

    <tlLogic id="J0" type="static" programID="0" offset="0">
        <phase duration="42" state="GGGgrrrrGGGgrrrr"/>
        <phase duration="3"  state="yyyyrrrryyyyrrrr"/>
        <phase duration="42" state="rrrrGGGgrrrrGGGg"/>
        <phase duration="3"  state="rrrryyyyrrrryyyy"/>
    </tlLogic>

    <junction id="J0" type="traffic_light" x="0.00" y="100.00" incLanes="-E0_0 -E0_1 -E1_0 -E1_1 -E2_0 -E2_1 -E3_0 -E3_1" intLanes=":J0_0_0 :J0_1_0 :J0_1_1 :J0_16_0 :J0_4_0 :J0_5_0 :J0_5_1 :J0_17_0 :J0_8_0 :J0_9_0 :J0_9_1 :J0_18_0 :J0_12_0 :J0_13_0 :J0_13_1 :J0_19_0" shape="-6.40,110.40 6.40,110.40 6.84,108.18 7.40,107.40 8.18,106.84 9.18,106.51 10.40,106.40 10.40,93.60 8.18,93.16 7.40,92.60 6.84,91.82 6.51,90.82 6.40,89.60 -6.40,89.60 -6.84,91.82 -7.40,92.60 -8.18,93.16 -9.18,93.49 -10.40,93.60 -10.40,106.40 -8.18,106.84 -7.40,107.40 -6.84,108.18 -6.51,109.18">
        <request index="0"  response="0000000000000000" foes="0000000001100000" cont="0"/>
        <request index="1"  response="1000000010000000" foes="1111100011100000" cont="0"/>
        <request index="2"  response="1000000010000000" foes="1111100011100000" cont="0"/>
        <request index="3"  response="1000011010000000" foes="1110011011100000" cont="1"/>
        <request index="4"  response="0000011000000000" foes="0000011000000000" cont="0"/>
        <request index="5"  response="0000111000001111" foes="1000111000001111" cont="0"/>
        <request index="6"  response="0000111000001111" foes="1000111000001111" cont="0"/>
        <request index="7"  response="0110111000001110" foes="0110111000001110" cont="1"/>
        <request index="8"  response="0000000000000000" foes="0110000000000000" cont="0"/>
        <request index="9"  response="1000000010000000" foes="1110000011111000" cont="0"/>
        <request index="10" response="1000000010000000" foes="1110000011111000" cont="0"/>
        <request index="11" response="1000000010000110" foes="1110000011100110" cont="1"/>
        <request index="12" response="0000000000000110" foes="0000000000000110" cont="0"/>
        <request index="13" response="0000111100001110" foes="0000111110001110" cont="0"/>
        <request index="14" response="0000111100001110" foes="0000111110001110" cont="0"/>
        <request index="15" response="0000111001101110" foes="0000111001101110" cont="1"/>
    </junction>
    <junction id="J1" type="dead_end" x="0.00" y="200.00" incLanes="E0_0 E0_1" intLanes="" shape="0.00,200.00 6.40,200.00 0.00,200.00"/>
    <junction id="J2" type="dead_end" x="100.00" y="100.00" incLanes="E1_0 E1_1" intLanes="" shape="100.00,100.00 100.00,93.60 100.00,100.00"/>
    <junction id="J3" type="dead_end" x="0.00" y="0.00" incLanes="E2_0 E2_1" intLanes="" shape="0.00,0.00 -6.40,0.00 0.00,0.00"/>
    <junction id="J4" type="dead_end" x="-100.00" y="100.00" incLanes="E3_0 E3_1" intLanes="" shape="-100.00,100.00 -100.00,106.40 -100.00,100.00"/>

    <junction id=":J0_16_0" type="internal" x="-0.89" y="105.44" incLanes=":J0_3_0 -E2_0 -E2_1" intLanes=":J0_5_0 :J0_5_1 :J0_7_0 :J0_8_0 :J0_9_0 :J0_9_1 :J0_13_0 :J0_13_1 :J0_15_0"/>
    <junction id=":J0_17_0" type="internal" x="5.44" y="100.89" incLanes=":J0_7_0 -E3_0 -E3_1" intLanes=":J0_1_0 :J0_1_1 :J0_3_0 :J0_9_0 :J0_9_1 :J0_11_0 :J0_12_0 :J0_13_0 :J0_13_1"/>
    <junction id=":J0_18_0" type="internal" x="0.89" y="94.56" incLanes=":J0_11_0 -E0_0 -E0_1" intLanes=":J0_0_0 :J0_1_0 :J0_1_1 :J0_5_0 :J0_5_1 :J0_7_0 :J0_13_0 :J0_13_1 :J0_15_0"/>
    <junction id=":J0_19_0" type="internal" x="-5.44" y="99.11" incLanes=":J0_15_0 -E1_0 -E1_1" intLanes=":J0_1_0 :J0_1_1 :J0_3_0 :J0_4_0 :J0_5_0 :J0_5_1 :J0_9_0 :J0_9_1 :J0_11_0"/>

    <connection from="-E0" to="E3" fromLane="0" toLane="0" via=":J0_0_0" tl="J0" linkIndex="0" dir="r" state="O"/>
    <connection from="-E0" to="E2" fromLane="0" toLane="0" via=":J0_1_0" tl="J0" linkIndex="1" dir="s" state="O"/>
    <connection from="-E0" to="E2" fromLane="1" toLane="1" via=":J0_1_1" tl="J0" linkIndex="2" dir="s" state="O"/>
    <connection from="-E0" to="E1" fromLane="1" toLane="1" via=":J0_3_0" tl="J0" linkIndex="3" dir="l" state="o"/>
    <connection from="-E1" to="E0" fromLane="0" toLane="0" via=":J0_4_0" tl="J0" linkIndex="4" dir="r" state="o"/>
    <connection from="-E1" to="E3" fromLane="0" toLane="0" via=":J0_5_0" tl="J0" linkIndex="5" dir="s" state="o"/>
    <connection from="-E1" to="E3" fromLane="1" toLane="1" via=":J0_5_1" tl="J0" linkIndex="6" dir="s" state="o"/>
    <connection from="-E1" to="E2" fromLane="1" toLane="1" via=":J0_7_0" tl="J0" linkIndex="7" dir="l" state="o"/>
    <connection from="-E2" to="E1" fromLane="0" toLane="0" via=":J0_8_0" tl="J0" linkIndex="8" dir="r" state="O"/>
    <connection from="-E2" to="E0" fromLane="0" toLane="0" via=":J0_9_0" tl="J0" linkIndex="9" dir="s" state="O"/>
    <connection from="-E2" to="E0" fromLane="1" toLane="1" via=":J0_9_1" tl="J0" linkIndex="10" dir="s" state="O"/>
    <connection from="-E2" to="E3" fromLane="1" toLane="1" via=":J0_11_0" tl="J0" linkIndex="11" dir="l" state="o"/>
    <connection from="-E3" to="E2" fromLane="0" toLane="0" via=":J0_12_0" tl="J0" linkIndex="12" dir="r" state="o"/>
    <connection from="-E3" to="E1" fromLane="0" toLane="0" via=":J0_13_0" tl="J0" linkIndex="13" dir="s" state="o"/>
    <connection from="-E3" to="E1" fromLane="1" toLane="1" via=":J0_13_1" tl="J0" linkIndex="14" dir="s" state="o"/>
    <connection from="-E3" to="E0" fromLane="1" toLane="1" via=":J0_15_0" tl="J0" linkIndex="15" dir="l" state="o"/>

    <connection from=":J0_0" to="E3" fromLane="0" toLane="0" dir="r" state="M"/>
    <connection from=":J0_1" to="E2" fromLane="0" toLane="0" dir="s" state="M"/>
    <connection from=":J0_1" to="E2" fromLane="1" toLane="1" dir="s" state="M"/>
    <connection from=":J0_3" to="E1" fromLane="0" toLane="1" via=":J0_16_0" dir="l" state="m"/>
    <connection from=":J0_16" to="E1" fromLane="0" toLane="1" dir="l" state="M"/>
    <connection from=":J0_4" to="E0" fromLane="0" toLane="0" dir="r" state="M"/>
    <connection from=":J0_5" to="E3" fromLane="0" toLane="0" dir="s" state="M"/>
    <connection from=":J0_5" to="E3" fromLane="1" toLane="1" dir="s" state="M"/>
    <connection from=":J0_7" to="E2" fromLane="0" toLane="1" via=":J0_17_0" dir="l" state="m"/>
    <connection from=":J0_17" to="E2" fromLane="0" toLane="1" dir="l" state="M"/>
    <connection from=":J0_8" to="E1" fromLane="0" toLane="0" dir="r" state="M"/>
    <connection from=":J0_9" to="E0" fromLane="0" toLane="0" dir="s" state="M"/>
    <connection from=":J0_9" to="E0" fromLane="1" toLane="1" dir="s" state="M"/>
    <connection from=":J0_11" to="E3" fromLane="0" toLane="1" via=":J0_18_0" dir="l" state="m"/>
    <connection from=":J0_18" to="E3" fromLane="0" toLane="1" dir="l" state="M"/>
    <connection from=":J0_12" to="E2" fromLane="0" toLane="0" dir="r" state="M"/>
    <connection from=":J0_13" to="E1" fromLane="0" toLane="0" dir="s" state="M"/>
    <connection from=":J0_13" to="E1" fromLane="1" toLane="1" dir="s" state="M"/>
    <connection from=":J0_15" to="E0" fromLane="0" toLane="1" via=":J0_19_0" dir="l" state="m"/>
    <connection from=":J0_19" to="E0" fromLane="0" toLane="1" dir="l" state="M"/>

</net>
