<?xml version="1.0" encoding="UTF-8"?>

<!-- generated on 2022-11-07 14:50:49 by Eclipse SUMO polyconvert Version 1.14.1
<configuration xmlns:xsi="http://www.w3.org/2001/XMLSchema-instance" xsi:noNamespaceSchemaLocation="http://sumo.dlr.de/xsd/polyconvertConfiguration.xsd">

    <input>
        <net-file value="osm.net.xml"/>
        <osm-files value="osm_bbox.osm.xml.gz"/>
        <osm.keep-full-type value="true"/>
        <type-file value="C:\Program%20Files%20(x86)\Eclipse\Sumo\data\typemap\osmPolyconvert.typ.xml"/>
    </input>

    <output>
        <output-file value="osm.poly.xml"/>
    </output>

    <report>
        <verbose value="true"/>
    </report>

</configuration>
-->

<additional xmlns:xsi="http://www.w3.org/2001/XMLSchema-instance" xsi:noNamespaceSchemaLocation="http://sumo.dlr.de/xsd/additional_file.xsd">
    <location netOffset="-585306.13,-4476203.06" convBoundary="0.00,-219.01,3326.61,1860.03" origBoundary="-79.994213,40.429939,-79.954971,40.448535" projParameter="+proj=utm +zone=17 +ellps=WGS84 +datum=WGS84 +units=m +no_defs"/>

    <poly id="1020919843" type="leisure.playground" color="207,245,201" fill="1" layer="-2.00" shape="910.189122,1393.314676 940.137290,1341.082180 949.559702,1346.308543 966.297504,1355.593565 977.666624,1361.908146 948.181460,1413.690664 910.189122,1393.314676"/>
    <poly id="1020919844" type="leisure.pitch" color="207,245,201" fill="1" layer="-2.00" shape="936.862512,1369.142692 949.559702,1346.308543 966.297504,1355.593565 953.586810,1378.860496 936.862512,1369.142692"/>
    <poly id="1020919844#1" type="sport.basketball" color="79,230,125" fill="1" layer="-2.00" shape="936.862512,1369.142692 949.559702,1346.308543 966.297504,1355.593565 953.586810,1378.860496 936.862512,1369.142692"/>
    <poly id="1054312730" type="building.yes" color="255,230,230" fill="1" layer="-1.00" shape="2869.220909,802.121188 2849.201572,782.724033 2881.355942,749.808518 2901.366809,769.205657 2869.220909,802.121188"/>
    <poly id="1058283894" type="building.yes" color="255,230,230" fill="1" layer="-1.00" shape="1402.643238,607.297480 1423.944582,606.433904 1425.296850,623.712604 1403.645759,624.749752 1402.643238,607.297480"/>
    <poly id="1058283895" type="building.yes" color="255,230,230" fill="1" layer="-1.00" shape="1430.670132,606.533976 1469.722833,604.443974 1471.350913,619.871906 1431.541772,622.097461 1430.670132,606.533976"/>
    <poly id="1058283896" type="building.yes" color="255,230,230" fill="1" layer="-1.00" shape="1484.858668,619.573225 1483.697102,603.417986 1510.431122,602.229041 1510.846261,618.375635 1484.858668,619.573225"/>
    <poly id="1058283897" type="building.yes" color="255,230,230" fill="1" layer="-1.00" shape="1513.527671,619.761111 1512.670094,602.998798 1528.445922,601.694028 1529.605451,618.748486 1513.527671,619.761111"/>
    <poly id="1084710990" type="building.house" color="255,230,230" fill="1" layer="-1.00" shape="1372.187588,1196.908302 1378.808108,1184.051508 1388.007360,1188.765165 1381.386956,1201.610851 1372.187588,1196.908302"/>
    <poly id="1084710991" type="building.house" color="255,230,230" fill="1" layer="-1.00" shape="1382.489973,1201.579211 1388.624789,1188.916633 1394.394440,1191.681119 1388.259489,1204.354792 1382.489973,1201.579211"/>
    <poly id="1084710992" type="building.house" color="255,230,230" fill="1" layer="-1.00" shape="1390.899587,1205.628736 1397.732924,1193.440520 1407.509103,1198.871386 1402.503238,1207.794663 1398.963665,1205.822000 1397.127702,1209.086833 1390.899587,1205.628736"/>
    <poly id="1084710993" type="building.house" color="255,230,230" fill="1" layer="-1.00" shape="1403.377273,1208.493084 1408.089780,1199.266666 1413.073273,1201.800032 1408.360890,1211.015346 1403.377273,1208.493084"/>
    <poly id="1084710994" type="building.house" color="255,230,230" fill="1" layer="-1.00" shape="1392.422547,1237.463680 1379.805221,1230.545633 1385.098619,1220.959571 1397.715956,1227.877627 1392.422547,1237.463680"/>
    <poly id="1089872202" type="amenity.parking_entrance" color="237,199,199" fill="0" layer="-1.00" shape="2607.499897,469.213942 2612.198295,473.643142"/>
    <poly id="1094533726" type="building.yes" color="255,230,230" fill="1" layer="-1.00" shape="1446.907988,1193.721301 1451.817546,1184.330668 1461.513521,1189.361017 1456.603954,1198.751644 1446.907988,1193.721301"/>
    <poly id="1094533866" type="building.yes" color="255,230,230" fill="1" layer="-1.00" shape="1484.718256,1149.996991 1501.037031,1145.656633 1497.768589,1133.462449 1481.449661,1137.813914 1484.718256,1149.996991"/>
    <poly id="1094533912" type="building.yes" color="255,230,230" fill="1" layer="-1.00" shape="1517.138344,1201.784473 1528.978968,1208.382902 1539.414940,1189.819824 1527.565942,1183.210181 1517.138344,1201.784473"/>
    <poly id="1094533992" type="building.yes" color="255,230,230" fill="1" layer="-1.00" shape="1503.259550,1226.136042 1514.821954,1232.586903 1525.656468,1213.295718 1514.093913,1206.855941 1503.259550,1226.136042"/>
    <poly id="1094534077" type="building.yes" color="255,230,230" fill="1" layer="-1.00" shape="1482.554332,1263.541780 1493.808697,1269.489467 1501.594854,1254.870021 1490.331992,1248.922224 1482.554332,1263.541780"/>
    <poly id="1094534122" type="building.yes" color="255,230,230" fill="1" layer="-1.00" shape="1424.982774,1230.291538 1436.405820,1236.329902 1444.079331,1221.908925 1432.656269,1215.870549 1424.982774,1230.291538"/>
    <poly id="1094534917" type="building.yes" color="255,230,230" fill="1" layer="-1.00" shape="1408.253510,1260.582952 1418.496289,1265.997035 1426.447290,1251.046374 1416.204367,1245.643381 1408.253510,1260.582952"/>
    <poly id="1094534965" type="building.yes" color="255,230,230" fill="1" layer="-1.00" shape="1397.697817,1277.801518 1412.400397,1285.554163 1417.186498,1276.561738 1402.484033,1268.797984 1397.697817,1277.801518"/>
    <poly id="1094534967" type="building.yes" color="255,230,230" fill="1" layer="-1.00" shape="1514.587297,1282.097545 1526.903872,1288.601578 1534.698942,1273.948963 1522.382350,1267.444918 1514.587297,1282.097545"/>
    <poly id="1094535008" type="building.yes" color="255,230,230" fill="1" layer="-1.00" shape="1490.677197,1323.063045 1506.610308,1331.474037 1511.500581,1322.283047 1495.567455,1313.872045 1490.677197,1323.063045"/>
    <poly id="1094535064" type="building.yes" color="255,230,230" fill="1" layer="-1.00" shape="1479.587257,1360.757855 1484.103541,1363.341366 1490.058614,1353.019233 1485.533845,1350.435619 1479.587257,1360.757855"/>
    <poly id="1097151210" type="landuse.grass" color="194,194,130" fill="1" layer="-3.00" shape="2739.635779,470.021916 2736.111568,463.852367 2733.490462,460.235719 2732.906130,457.264701 2733.961240,454.823628 2748.512262,456.737609 2749.943315,456.954260 2750.139700,458.288770 2750.126523,459.409886 2744.301461,465.680483 2739.635779,470.021916"/>
    <poly id="1097151211" type="landuse.grass" color="194,194,130" fill="1" layer="-3.00" shape="2825.720075,459.155323 2826.561569,461.174629 2826.270686,464.268578 2821.234658,465.474928 2822.490619,478.412070 2821.066475,479.771926 2817.816030,482.065045 2813.327933,482.844879 2803.344258,483.515672 2791.773608,483.523918 2788.375865,483.195318 2786.222707,482.348474 2782.730365,480.686562 2779.963657,479.355133 2776.542558,478.127027 2773.795810,477.983715 2771.087165,478.207208 2766.144975,480.091901 2752.169064,484.823453 2748.267125,487.697333 2745.011099,491.189400 2741.647287,491.582830 2740.565813,491.214865 2740.386001,490.635464 2740.651931,489.661641 2757.446464,472.462699 2772.265886,457.316588 2773.900108,456.847327 2825.720075,459.155323"/>
    <poly id="1097151212" type="landuse.grass" color="194,194,130" fill="1" layer="-3.00" shape="2853.146112,428.792943 2848.030054,431.030791 2851.207600,438.539619 2933.030534,441.656643 2931.007170,436.992303 2857.677887,433.675508 2855.422810,432.838547 2853.146112,428.792943"/>
    <poly id="1097151213" type="landuse.grass" color="194,194,130" fill="1" layer="-3.00" shape="2936.667181,465.634732 2936.446635,472.115524 2980.571811,473.767775 2981.480608,466.473569 2952.919236,465.004656 2951.819049,466.945593 2936.667181,465.634732"/>
    <poly id="1097151214" type="landuse.grass" color="194,194,130" fill="1" layer="-3.00" shape="2983.619733,473.548356 2984.255811,466.361953 3012.285317,467.613783 3017.776147,469.565806 3021.443656,472.195741 3024.165590,476.601904 3025.050434,479.976151 3025.367609,484.731418 3023.998197,490.799003 3023.428437,492.357625 3000.995347,515.051470 2966.488879,548.760312 2898.653651,619.256387 2878.085833,639.929835 2872.833276,635.038767 2884.453909,621.398359 2887.848682,616.209426 2889.906286,609.317294 2890.632506,605.273726 2890.509923,601.275672 2888.939772,595.584220 2885.568412,589.416394 2881.660453,585.595812 2874.707679,578.131340 2867.542766,576.437258 2855.340546,578.946951 2848.239267,580.495332 2847.127952,578.339627 2852.936438,572.757219 2850.751093,571.044044 2864.846324,556.167134 2866.027742,555.970106 2865.824927,558.787549 2879.366973,558.480679 2879.329566,555.893543 2880.540362,554.642203 2885.362124,558.662271 2884.394170,559.461299 2891.942882,566.744067 2892.315822,566.049051 2904.010366,576.400305 2900.612208,579.713005 2913.190581,592.084088 2958.111916,545.542032 2955.864096,543.372920 2956.809662,540.875077 3003.394516,493.586863 2985.672860,476.403486 2983.619733,473.548356"/>
    <poly id="1097151216" type="leisure.garden" color="207,245,201" fill="1" layer="-2.00" shape="3027.364094,487.352756 3027.202705,483.054496 3026.953096,479.043839 3025.645218,475.575790 3023.433442,472.507846 3021.721532,470.211814 3020.762606,469.523304 3017.725045,468.144186 3039.616282,469.834430 3040.505389,470.688644 3027.364094,487.352756"/>
    <poly id="1097151217" type="landuse.grass" color="194,194,130" fill="1" layer="-3.00" shape="3047.147381,434.730859 3048.358320,437.787006 3048.573290,439.699034 3029.543493,443.526744 3047.147381,434.730859"/>
    <poly id="1098330543" type="building.yes" color="255,230,230" fill="1" layer="-1.00" shape="934.571571,986.165732 953.297840,995.207154 971.404451,962.310653 951.198149,952.885791 934.571571,986.165732"/>
    <poly id="1098331415" type="building.yes" color="255,230,230" fill="1" layer="-1.00" shape="951.715378,940.380219 974.470210,953.153822 977.510618,945.462115 956.244176,932.339290 951.715378,940.380219"/>
    <poly id="1098331668" type="building.yes" color="255,230,230" fill="1" layer="-1.00" shape="980.288386,960.570118 1002.686955,971.863191 1008.335214,962.369777 984.460917,951.059687 980.288386,960.570118"/>
    <poly id="1098331731" type="building.yes" color="255,230,230" fill="1" layer="-1.00" shape="962.269874,921.740027 978.430681,929.652900 984.074846,920.514674 966.094717,910.749067 962.269874,921.740027"/>
    <poly id="1110337540" type="building.yes" color="255,230,230" fill="1" layer="-1.00" shape="1685.755220,644.872766 1685.640582,637.944007 1704.095453,637.492241 1703.910001,644.695056 1685.755220,644.872766"/>
    <poly id="1110337541" type="building.yes" color="255,230,230" fill="1" layer="-1.00" shape="1717.186649,632.160094 1716.547949,629.454974 1730.106878,625.482683 1730.754184,628.176803 1717.186649,632.160094"/>
    <poly id="1110414526" type="building.yes" color="255,230,230" fill="1" layer="-1.00" shape="985.699043,463.612944 1005.135651,462.648978 1004.862854,451.721845 985.430225,453.074415 985.699043,463.612944"/>
    <poly id="1110414527" type="building.yes" color="255,230,230" fill="1" layer="-1.00" shape="979.864372,503.256217 990.518346,502.546315 990.433744,499.581209 990.044189,496.579285 979.544792,497.124444 979.864372,503.256217"/>
    <poly id="1110414528" type="building.yes" color="255,230,230" fill="1" layer="-1.00" shape="996.721068,502.384635 996.636597,499.408429 990.433744,499.581209 990.518346,502.546315 996.721068,502.384635"/>
    <poly id="1110414529" type="building.yes" color="255,230,230" fill="1" layer="-1.00" shape="1029.566023,539.931303 1040.986489,538.952768 1039.818945,525.439742 1028.398458,526.418280 1029.566023,539.931303"/>
    <poly id="1110414530" type="building.yes" color="255,230,230" fill="1" layer="-1.00" shape="1056.869505,545.275051 1056.859903,532.863330 1070.525599,532.854361 1070.535178,545.266082 1056.869505,545.275051"/>
    <poly id="1110414531" type="amenity.parking" color="184,184,179" fill="1" layer="-1.00" shape="914.692522,589.420389 929.067516,588.209252 927.790320,573.151861 913.415169,574.374101 914.692522,589.420389"/>
    <poly id="1110414532" type="amenity.parking" color="184,184,179" fill="1" layer="-1.00" shape="898.363190,588.710687 876.946402,590.029594 876.623478,584.919137 851.870525,586.455073 851.340430,577.967345 897.518718,575.112595 898.363190,588.710687"/>
    <poly id="1110414533" type="amenity.parking" color="184,184,179" fill="1" layer="-1.00" shape="852.531709,613.783745 851.561918,594.111636 863.732782,593.518919 864.124805,601.472183 881.761556,600.609321 882.339264,612.328170 852.531709,613.783745"/>
    <poly id="1110414535" type="amenity.parking" color="184,184,179" fill="1" layer="-1.00" shape="775.049671,617.666690 773.304618,588.671439 804.906946,586.792112 805.135991,590.480480 835.439763,588.664067 836.287592,602.717354 817.366963,603.843102 818.043428,615.096811 775.049671,617.666690"/>
    <poly id="1110743556" type="amenity.parking" color="184,184,179" fill="1" layer="-1.00" shape="1350.986651,586.550284 1348.542534,556.580911 1385.341170,554.308966 1385.152292,586.756854 1350.986651,586.550284"/>
    <poly id="1110743829" type="building.yes" color="255,230,230" fill="1" layer="-1.00" shape="1546.032031,661.547014 1509.106003,662.406772 1509.636606,683.228496 1546.476688,682.456561 1546.032031,661.547014"/>
    <poly id="1110743971" type="building.yes" color="255,230,230" fill="1" layer="-1.00" shape="1463.453928,720.905254 1464.234831,724.522332 1498.845152,722.170110 1497.572781,702.405548 1446.959707,705.160820 1447.387196,716.589356 1456.460953,716.805463 1456.589307,721.103283 1463.453928,720.905254"/>
    <poly id="1110744153" type="amenity.parking" color="184,184,179" fill="1" layer="-1.00" shape="1166.852792,664.576263 1206.385253,660.569855 1206.287563,696.204952 1169.937058,699.404364 1166.852792,664.576263"/>
    <poly id="1110744239" type="amenity.parking" color="184,184,179" fill="1" layer="-1.00" shape="1122.018089,655.410683 1169.293997,652.237232 1167.255916,618.631288 1121.286494,619.566201 1122.018089,655.410683"/>
    <poly id="1110744316" type="amenity.parking" color="184,184,179" fill="1" layer="-1.00" shape="1188.267757,600.223133 1208.886567,598.962509 1209.990095,559.231432 1186.626495,560.171723 1188.267757,600.223133"/>
    <poly id="154420416" type="landuse.recreation_ground" color="194,194,130" fill="1" layer="-3.00" shape="2672.824248,1430.576974 2676.614186,1437.193704 2679.970162,1441.762624 2683.762826,1448.146255 2697.993725,1456.928387 2705.648137,1463.812578 2712.647444,1467.980264 2721.744433,1468.309218 2725.164693,1468.127387 2733.646659,1462.332088 2737.319386,1459.433312 2746.216645,1457.273166 2752.213322,1450.771464 2759.564288,1444.507725 2766.473758,1437.561597 2774.758670,1429.055210 2782.570238,1422.574875 2789.891878,1418.808704 2793.793754,1415.901549 2798.361146,1414.822905 2795.918004,1409.809498 2791.199448,1404.991360 2786.677228,1402.229350 2778.506899,1400.989775 2772.153897,1399.560650 2767.562482,1402.681742 2765.311090,1400.834587 2762.098368,1402.839521 2760.748916,1401.469244 2757.310479,1403.915594 2746.563785,1389.512446 2743.385646,1388.575843 2740.897177,1387.414214 2740.250699,1384.686696 2672.824248,1430.576974"/>
    <poly id="154420417" type="building.yes" color="255,230,230" fill="1" layer="-1.00" shape="2759.515727,1341.883001 2760.376886,1332.123628 2759.909066,1320.694475 2755.998867,1307.715014 2750.755478,1297.029035 2739.282528,1283.061433 2727.700982,1275.442747 2710.442533,1268.756517 2698.770934,1267.353770 2694.086949,1266.799157 2683.467888,1268.217531 2676.111044,1269.196868 2660.121789,1277.934822 2650.175150,1286.377413 2641.633115,1298.722105 2636.735565,1309.133497 2634.748424,1315.837793 2632.855549,1327.516756 2633.668619,1335.563933 2635.324799,1344.042873 2638.890930,1350.945597 2639.229399,1353.181013 2620.619647,1366.240140 2615.676402,1369.712447 2623.070605,1379.990614 2655.501544,1425.055783 2662.687012,1435.042897 2663.688511,1436.431272 2742.400213,1382.935694 2744.446257,1384.214241 2744.676398,1387.725085 2748.153574,1389.198086 2750.352015,1387.614187 2751.032827,1383.814307 2747.206777,1379.550676 2752.347091,1375.914245 2791.844621,1347.980591 2786.876789,1347.045122 2759.515727,1341.883001"/>
    <poly id="154420417#1" type="sport.basketball" color="79,230,125" fill="1" layer="-2.00" shape="2759.515727,1341.883001 2760.376886,1332.123628 2759.909066,1320.694475 2755.998867,1307.715014 2750.755478,1297.029035 2739.282528,1283.061433 2727.700982,1275.442747 2710.442533,1268.756517 2698.770934,1267.353770 2694.086949,1266.799157 2683.467888,1268.217531 2676.111044,1269.196868 2660.121789,1277.934822 2650.175150,1286.377413 2641.633115,1298.722105 2636.735565,1309.133497 2634.748424,1315.837793 2632.855549,1327.516756 2633.668619,1335.563933 2635.324799,1344.042873 2638.890930,1350.945597 2639.229399,1353.181013 2620.619647,1366.240140 2615.676402,1369.712447 2623.070605,1379.990614 2655.501544,1425.055783 2662.687012,1435.042897 2663.688511,1436.431272 2742.400213,1382.935694 2744.446257,1384.214241 2744.676398,1387.725085 2748.153574,1389.198086 2750.352015,1387.614187 2751.032827,1383.814307 2747.206777,1379.550676 2752.347091,1375.914245 2791.844621,1347.980591 2786.876789,1347.045122 2759.515727,1341.883001"/>
    <poly id="154664983" type="building.university" color="255,230,230" fill="1" layer="-1.00" shape="3030.487784,1407.099437 3043.751794,1420.167194 3042.366386,1421.849414 3054.259182,1433.235758 3041.017190,1446.346088 3029.024987,1434.758761 3028.464585,1435.529272 3022.058224,1429.281158 3015.291115,1422.695745 3015.869917,1421.803332 3003.500589,1409.823041 3016.511532,1396.165937 3028.795897,1408.877960 3030.487784,1407.099437"/>
    <poly id="154672169" type="building.university" color="255,230,230" fill="1" layer="-1.00" shape="3018.335288,1025.012819 3028.491004,1014.730281 3027.258298,1013.527860 3028.949485,1011.815938 3029.846746,1012.692453 3032.198959,1010.311124 3034.144437,1012.210257 3044.265875,1001.960640 3035.125866,993.004775 3015.698405,1012.692135 3010.813665,1017.641408 3018.335288,1025.012819"/>
    <poly id="154945598" type="building.university" color="255,230,230" fill="1" layer="-1.00" shape="3008.083284,1280.852964 3001.322983,1287.345466 2999.983603,1289.438999 2997.565103,1287.378871 2979.865055,1305.943200 2983.683450,1310.129150 2981.443187,1311.656981 2979.446762,1309.768359 2972.935829,1316.696792 2979.990347,1324.095976 2982.393105,1324.612775 2984.040894,1322.978045 3001.303592,1339.345660 2999.388451,1341.354693 3000.133624,1343.617126 3001.652264,1345.022747 3001.707991,1344.612640 3003.579835,1345.556154 3007.560480,1350.365726 3009.221304,1349.064207 3014.231633,1343.516924 3012.439416,1341.575193 3013.882391,1339.327460 3020.824401,1346.192474 3023.921399,1343.220435 3026.383498,1340.862604 3026.958249,1340.314297 3039.397550,1328.393457 3041.833954,1326.057532 3045.136862,1322.888099 3047.813349,1320.332973 3040.441471,1312.519217 3035.977848,1306.949014 3033.276430,1306.584099 3018.114268,1291.906439 3016.227311,1290.085709 3015.327941,1287.233064 3008.083284,1280.852964"/>
    <poly id="154945603" type="building.university" color="255,230,230" fill="1" layer="-1.00" shape="2956.294906,1285.704519 2988.309160,1263.101322 2984.738018,1258.085656 2971.546460,1239.556831 2968.734618,1235.604786 2936.720310,1258.208067 2956.294906,1285.704519"/>
    <poly id="154945605" type="building.dormitory" color="255,230,230" fill="1" layer="-1.00" shape="2916.771136,1118.480105 2919.197874,1117.687163 2926.706234,1112.502298 2912.411190,1089.686436 2915.120570,1087.942075 2911.046988,1081.643836 2861.527020,1113.455530 2857.629667,1115.963046 2851.587144,1119.844129 2855.827498,1126.388536 2859.211939,1124.219135 2873.757331,1146.671485 2884.047523,1140.065006 2872.084842,1121.584146 2883.452026,1114.279837 2886.734172,1119.358656 2896.708265,1112.948303 2893.051147,1107.298876 2904.905448,1099.689487 2916.771136,1118.480105"/>
    <poly id="154945606" type="building.university" color="255,230,230" fill="1" layer="-1.00" shape="3067.761733,1211.871443 3049.972905,1186.882546 2984.497885,1233.126180 2983.213040,1231.312557 2971.546460,1239.556831 2984.738018,1258.085656 2988.432983,1255.475906 2999.569170,1247.613965 2995.355477,1241.702581 3039.267658,1210.691558 3049.363669,1224.865420 3067.761733,1211.871443"/>
    <poly id="154945609" type="amenity.school" color="237,199,199" fill="1" layer="-2.00" shape="3038.868115,1293.461219 3037.249647,1295.484843 3077.615731,1333.518195 3084.561326,1327.138965 3083.481990,1325.882834 3087.247423,1323.051929 3098.596969,1333.044213 3104.397784,1327.361998 3101.961708,1325.357136 3118.270848,1308.242093 3120.211151,1309.852547 3125.602474,1303.654833 3115.308197,1293.364119 3108.128979,1300.129125 3106.199773,1298.296771 3076.759004,1270.272713 3068.580908,1262.493823 3084.974744,1246.112421 3071.164470,1232.594087 3025.093971,1280.476277 3038.868115,1293.461219"/>
    <poly id="154945609#1" type="building.yes" color="255,230,230" fill="1" layer="-1.00" shape="3038.868115,1293.461219 3037.249647,1295.484843 3077.615731,1333.518195 3084.561326,1327.138965 3083.481990,1325.882834 3087.247423,1323.051929 3098.596969,1333.044213 3104.397784,1327.361998 3101.961708,1325.357136 3118.270848,1308.242093 3120.211151,1309.852547 3125.602474,1303.654833 3115.308197,1293.364119 3108.128979,1300.129125 3106.199773,1298.296771 3076.759004,1270.272713 3068.580908,1262.493823 3084.974744,1246.112421 3071.164470,1232.594087 3025.093971,1280.476277 3038.868115,1293.461219"/>
    <poly id="154981724" type="building.university" color="255,230,230" fill="1" layer="-1.00" shape="2940.895775,1432.931581 2955.294691,1446.867383 2962.376967,1439.668128 2972.910312,1428.957010 3001.617619,1399.753787 3004.730416,1402.632530 3013.032005,1392.738880 3011.467887,1390.155939 3015.381649,1386.249882 3001.896927,1372.469067 2983.007813,1391.185891 2958.875011,1415.114273 2950.293049,1423.616962 2940.895775,1432.931581"/>
    <poly id="156000474" type="building.university" color="255,230,230" fill="1" layer="-1.00" shape="3032.767063,1439.654350 3026.080947,1447.058044 3028.445593,1450.083397 3041.039234,1461.733328 3032.854866,1471.039938 3047.364442,1484.921722 3055.982172,1476.985752 3080.943044,1502.203658 3084.155325,1499.521649 3083.026931,1498.831127 3086.364622,1495.584411 3065.663322,1475.967607 3074.530719,1467.002144 3071.596427,1464.813783 3070.787206,1465.825592 3054.261849,1449.544212 3052.308247,1451.219725 3046.006143,1445.483500 3043.009110,1448.612133 3032.767063,1439.654350"/>
    <poly id="207294546" type="building.yes" color="255,230,230" fill="1" layer="-1.00" shape="3025.853492,1464.185309 3032.403613,1457.523826 3026.651425,1451.905120 3028.445593,1450.083397 3023.095880,1444.858002 3030.401469,1437.428307 3028.464585,1435.529272 3022.058224,1429.281158 3015.053122,1436.403557 2990.760805,1412.714702 2979.531979,1424.139209 3017.668324,1461.335547 3020.243773,1458.712611 3025.853492,1464.185309"/>
    <poly id="240900037" type="building.retail" color="255,230,230" fill="1" layer="-1.00" shape="3039.991599,1104.012649 3074.530888,1068.062019 3107.592401,1099.126239 3099.306882,1107.621166 3101.495644,1109.745224 3075.127403,1137.554673 3039.991599,1104.012649"/>
    <poly id="240900043" type="building.retail" color="255,230,230" fill="1" layer="-1.00" shape="3071.593203,997.853443 3074.495037,1000.652008 3085.381233,1011.138362 3087.116898,1012.846305 3097.784517,1023.163573 3115.523848,1004.944122 3110.634427,1000.223685 3105.527112,995.278646 3107.029641,993.742142 3105.528563,992.281202 3106.876599,990.898298 3101.811026,986.009263 3097.938636,989.982377 3081.148939,973.731164 3084.969786,969.812941 3078.654777,963.699092 3078.070990,964.291696 3070.682438,957.143830 3069.809964,956.323111 3068.169904,958.013424 3066.484191,956.383788 3048.160957,975.207060 3059.080366,985.760376 3060.841618,987.457512 3071.593203,997.853443"/>
    <poly id="240900048" type="amenity.parking" color="184,184,179" fill="1" layer="-1.00" shape="3060.065051,882.159748 3034.161936,908.598225 3013.581958,929.615308 3013.738126,937.232920 3020.350441,943.316912 3027.321688,942.699712 3032.967562,937.948154 3034.516636,933.903199 3048.382435,919.756640 3065.480366,936.499886 3074.186318,927.610218 3082.643324,918.972963 3089.992657,911.477222 3060.065051,882.159748"/>
    <poly id="240900048#1" type="building.garage" color="255,230,230" fill="1" layer="-1.00" shape="3060.065051,882.159748 3034.161936,908.598225 3013.581958,929.615308 3013.738126,937.232920 3020.350441,943.316912 3027.321688,942.699712 3032.967562,937.948154 3034.516636,933.903199 3048.382435,919.756640 3065.480366,936.499886 3074.186318,927.610218 3082.643324,918.972963 3089.992657,911.477222 3060.065051,882.159748"/>
    <poly id="240900052" type="landuse.grass" color="194,194,130" fill="1" layer="-3.00" shape="2923.345533,1236.502082 2909.063050,1200.397621 2932.547933,1184.710007 2902.901500,1144.527877 2944.595326,1114.633649 2953.727526,1125.687538 2986.623340,1097.432837 3027.397379,1131.196520 3041.045638,1144.091157 3043.830465,1148.176130 3045.012956,1151.476185 3044.891162,1156.048654 3043.266975,1159.992806 3040.458085,1163.700951 3005.953657,1179.480329 2923.345533,1236.502082"/>
    <poly id="240900053" type="building.commercial" color="255,230,230" fill="1" layer="-1.00" shape="3014.591858,969.138190 2987.808950,996.854242 2998.200122,1006.890563 3024.983036,979.174547 3014.591858,969.138190"/>
    <poly id="240900054" type="building.university" color="255,230,230" fill="1" layer="-1.00" shape="3042.049005,1048.239721 3058.148671,1064.016439 3082.469369,1039.380058 3066.369698,1023.603289 3053.037466,1037.112207 3042.049005,1048.239721"/>
    <poly id="240900055" type="building.retail" color="255,230,230" fill="1" layer="-1.00" shape="3026.376960,1032.878847 3042.049005,1048.239721 3053.037466,1037.112207 3066.369698,1023.603289 3050.689036,1008.253364 3026.376960,1032.878847"/>
    <poly id="240900056" type="landuse.grass" color="194,194,130" fill="1" layer="-3.00" shape="2714.562411,879.912501 2746.105125,849.875682 2787.883771,891.465384 2786.717336,904.818108 2766.683334,925.631339 2761.046915,920.214050 2768.850507,912.290378 2768.286607,903.258069 2740.734177,878.876783 2728.499895,892.099426 2714.562411,879.912501"/>
    <poly id="240900057" type="amenity.parking" color="184,184,179" fill="1" layer="-1.00" shape="2734.378515,1059.493276 2712.768078,1026.111833 2629.575826,1082.375016 2651.279598,1114.325194 2686.934798,1090.797630 2710.511256,1075.243623 2734.378515,1059.493276"/>
    <poly id="240900057#1" type="building.yes" color="255,230,230" fill="1" layer="-1.00" shape="2734.378515,1059.493276 2712.768078,1026.111833 2629.575826,1082.375016 2651.279598,1114.325194 2686.934798,1090.797630 2710.511256,1075.243623 2734.378515,1059.493276"/>
    <poly id="240900061" type="landuse.grass" color="194,194,130" fill="1" layer="-3.00" shape="2611.665761,1059.617231 2648.554933,1029.975833 2660.298410,1031.068487 2672.252816,1041.644484 2686.248025,1040.232441 2626.673092,1080.364836 2611.665761,1059.617231"/>
    <poly id="240900062" type="landuse.grass" color="194,194,130" fill="1" layer="-3.00" shape="2602.899230,1048.434848 2592.257923,1034.377341 2646.309951,977.727109 2668.294666,999.500370 2602.899230,1048.434848"/>
    <poly id="253223944" type="building.apartments" color="255,230,230" fill="1" layer="-1.00" shape="2157.872365,705.023693 2150.536265,708.546082 2169.410721,747.700014 2176.746922,744.166543 2157.872365,705.023693"/>
    <poly id="253223945" type="building.apartments" color="255,230,230" fill="1" layer="-1.00" shape="2183.527409,692.345433 2175.773493,696.051647 2194.572557,735.115950 2202.292648,731.398259 2183.527409,692.345433"/>
    <poly id="253223946" type="building.apartments" color="255,230,230" fill="1" layer="-1.00" shape="2107.225968,729.500081 2099.660532,733.053148 2118.151581,772.368998 2125.716987,768.815950 2107.225968,729.500081"/>
    <poly id="253223947" type="building.apartments" color="255,230,230" fill="1" layer="-1.00" shape="2132.909193,717.299353 2124.762984,721.189768 2143.453022,760.163853 2151.599330,756.262358 2132.909193,717.299353"/>
    <poly id="253223948" type="building.apartments" color="255,230,230" fill="1" layer="-1.00" shape="2057.475107,753.587588 2049.328848,757.489184 2067.909955,796.372991 2076.090237,792.460712 2057.475107,753.587588"/>
    <poly id="253223949" type="building.apartments" color="255,230,230" fill="1" layer="-1.00" shape="2083.628006,741.103529 2074.826326,745.197282 2093.047236,784.410002 2101.848881,780.316271 2083.628006,741.103529"/>
    <poly id="271049767" type="amenity.parking" color="184,184,179" fill="1" layer="-1.00" shape="755.462934,911.556628 797.259583,841.785948 860.630183,879.460830 818.833130,949.231167 755.462934,911.556628"/>
    <poly id="271049771" type="leisure.pitch" color="207,245,201" fill="1" layer="-2.00" shape="2209.491488,1435.805989 2263.242026,1479.886279 2333.420369,1394.991065 2279.669730,1350.899180 2209.491488,1435.805989"/>
    <poly id="271049771#1" type="sport.soccer" color="79,230,125" fill="1" layer="-2.00" shape="2209.491488,1435.805989 2263.242026,1479.886279 2333.420369,1394.991065 2279.669730,1350.899180 2209.491488,1435.805989"/>