<?xml version="1.0" encoding="UTF-8"?>

<!-- generated on 2022-11-07 14:50:52.632344 by osmWebWizard.py v1_14_1+0000-f654d7b963e
<configuration>
    <end value="3600"/>
    <fringe-factor value="5.0"/>
    <fringe-start-attributes value="departSpeed=&quot;max&quot;"/>
    <min-distance value="600.0"/>
    <net-file value="C:\Users\difra\OneDrive\Documents\Pitt2022\CS1980\team-project\OSM_files\2022-11-07-14-50-35\osm.net.xml"/>
    <period value="9.403776535759466"/>
    <route-file value="C:\Users\difra\OneDrive\Documents\Pitt2022\CS1980\team-project\OSM_files\2022-11-07-14-50-35\osm.bus.rou.xml"/>
    <trip-attributes value="departLane=&quot;best&quot;"/>
    <output-trip-file value="C:\Users\difra\OneDrive\Documents\Pitt2022\CS1980\team-project\OSM_files\2022-11-07-14-50-35\osm.bus.trips.xml"/>
    <prefix value="bus"/>
    <validate value="True"/>
    <vclass value="bus"/>
    <vehicle-class value="bus"/>
</configuration>
-->

<!-- generated on 2022-11-07 14:50:52 by Eclipse SUMO duarouter Version 1.14.1
<configuration xmlns:xsi="http://www.w3.org/2001/XMLSchema-instance" xsi:noNamespaceSchemaLocation="http://sumo.dlr.de/xsd/duarouterConfiguration.xsd">

    <input>
        <net-file value="C:\Users\difra\OneDrive\Documents\Pitt2022\CS1980\team-project\OSM_files\2022-11-07-14-50-35\osm.net.xml"/>
        <route-files value="C:\Users\difra\OneDrive\Documents\Pitt2022\CS1980\team-project\OSM_files\2022-11-07-14-50-35\osm.bus.trips.xml"/>
    </input>

    <output>
        <output-file value="C:\Users\difra\OneDrive\Documents\Pitt2022\CS1980\team-project\OSM_files\2022-11-07-14-50-35\osm.bus.trips.xml.tmp"/>
        <alternatives-output value="NUL"/>
        <write-trips value="true"/>
    </output>

    <time>
        <begin value="0"/>
        <end value="3600"/>
    </time>

    <report>
        <no-warnings value="true"/>
        <ignore-errors value="true"/>
        <no-step-log value="true"/>
    </report>

</configuration>
-->

<routes xmlns:xsi="http://www.w3.org/2001/XMLSchema-instance" xsi:noNamespaceSchemaLocation="http://sumo.dlr.de/xsd/routes_file.xsd">
    <vType id="bus_bus" vClass="bus"/>
    <trip id="bus0" type="bus_bus" depart="0.00" departLane="best" departSpeed="max" from="147003984" to="-11694981#0"/>
    <trip id="bus1" type="bus_bus" depart="9.40" departLane="best" departSpeed="max" from="-317788871#4" to="-315256157"/>
    <trip id="bus2" type="bus_bus" depart="18.81" departLane="best" departSpeed="max" from="294921223#0" to="294294299#7"/>
    <trip id="bus3" type="bus_bus" depart="28.21" departLane="best" from="-294921125#1" to="11831739#3"/>
    <trip id="bus4" type="bus_bus" depart="37.62" departLane="best" from="-11694981#11" to="-302193664#1"/>
    <trip id="bus5" type="bus_bus" depart="47.02" departLane="best" from="147006425#4" to="11943433#0"/>
    <trip id="bus6" type="bus_bus" depart="56.42" departLane="best" from="-294921157" to="11957342#7"/>
    <trip id="bus7" type="bus_bus" depart="65.83" departLane="best" from="319989348" to="294921125#1"/>
    <trip id="bus8" type="bus_bus" depart="75.23" departLane="best" from="-550521598" to="-231026896#1"/>
    <trip id="bus9" type="bus_bus" depart="84.63" departLane="best" from="769549466#3" to="-747249642#0"/>
    <trip id="bus11" type="bus_bus" depart="103.44" departLane="best" from="-625866899#0" to="11943894"/>
    <trip id="bus12" type="bus_bus" depart="112.85" departLane="best" from="344435183" to="153284384#1"/>
    <trip id="bus13" type="bus_bus" depart="122.25" departLane="best" from="544236764#1" to="11952749"/>
    <trip id="bus14" type="bus_bus" depart="131.65" departLane="best" departSpeed="max" from="-11815530#3" to="-317788872#3"/>
    <trip id="bus15" type="bus_bus" depart="141.06" departLane="best" from="-11834344" to="-54490634"/>
    <trip id="bus16" type="bus_bus" depart="150.46" departLane="best" from="11961660#3" to="-911068789#4"/>
    <trip id="bus17" type="bus_bus" depart="159.86" departLane="best" from="-625866894#1" to="-302256387#1"/>
    <trip id="bus19" type="bus_bus" depart="178.67" departLane="best" from="-11957342#7" to="1035459376#1"/>
    <trip id="bus20" type="bus_bus" depart="188.08" departLane="best" departSpeed="max" from="911068791#0" to="231026995"/>
    <trip id="bus21" type="bus_bus" depart="197.48" departLane="best" from="11833510#2" to="294921091"/>
    <trip id="bus22" type="bus_bus" depart="206.88" departLane="best" from="-294921218#0" to="-11695441#0"/>
    <trip id="bus23" type="bus_bus" depart="216.29" departLane="best" departSpeed="max" from="-294921102#2" to="659852576#2"/>
    <trip id="bus24" type="bus_bus" depart="225.69" departLane="best" departSpeed="max" from="54499608" to="-625866898#0"/>
    <trip id="bus25" type="bus_bus" depart="235.09" departLane="best" from="153284384#1" to="1067803401"/>
    <trip id="bus26" type="bus_bus" depart="244.50" departLane="best" from="625866892#2" to="11807972"/>
    <trip id="bus27" type="bus_bus" depart="253.90" departLane="best" departSpeed="max" from="11834136" to="-350992134"/>
    <trip id="bus28" type="bus_bus" depart="263.31" departLane="best" from="11853134#0" to="59380116"/>
    <trip id="bus29" type="bus_bus" depart="272.71" departLane="best" from="-798422325#2" to="-306643542#1"/>
    <trip id="bus30" type="bus_bus" depart="282.11" departLane="best" from="946801108#1" to="11832520#0"/>
    <trip id="bus31" type="bus_bus" depart="291.52" departLane="best" departSpeed="max" from="-11824017#2" to="-11810930#0"/>
    <trip id="bus32" type="bus_bus" depart="300.92" departLane="best" from="-11835496#3" to="231026892#1"/>
    <trip id="bus33" type="bus_bus" depart="310.32" departLane="best" from="-11808030#1" to="1041017537"/>
    <trip id="bus34" type="bus_bus" depart="319.73" departLane="best" from="932572338#1" to="11837601#2"/>
    <trip id="bus35" type="bus_bus" depart="329.13" departLane="best" from="807956164#5" to="54293047#1"/>
    <trip id="bus36" type="bus_bus" depart="338.54" departLane="best" departSpeed="max" from="-1049118856" to="299800397#1"/>
    <trip id="bus37" type="bus_bus" depart="347.94" departLane="best" from="-11837601#1" to="11705449"/>
    <trip id="bus38" type="bus_bus" depart="357.34" departLane="best" from="1058777101#1" to="747249642#2"/>
    <trip id="bus39" type="bus_bus" depart="366.75" departLane="best" departSpeed="max" from="54499608" to="-350992134"/>
    <trip id="bus40" type="bus_bus" depart="376.15" departLane="best" from="11755256#2" to="-294921102#1"/>
    <trip id="bus41" type="bus_bus" depart="385.55" departLane="best" from="625866892#0" to="544236764#0"/>
    <trip id="bus42" type="bus_bus" depart="394.96" departLane="best" from="-344435171#0" to="231026995"/>
    <trip id="bus43" type="bus_bus" depart="404.36" departLane="best" from="11949435#3" to="-231026894#2"/>
    <trip id="bus44" type="bus_bus" depart="413.77" departLane="best" from="302256387#2" to="11853134#1"/>
    <trip id="bus45" type="bus_bus" depart="423.17" departLane="best" departSpeed="max" from="30678281" to="11839510#0"/>
    <trip id="bus46" type="bus_bus" depart="432.57" departLane="best" departSpeed="max" from="-1033988118" to="-695620966"/>
    <trip id="bus47" type="bus_bus" depart="441.98" departLane="best" from="-11690285#2" to="625866895#0"/>
    <trip id="bus48" type="bus_bus" depart="451.38" departLane="best" departSpeed="max" from="54499608" to="402298704#1"/>
    <trip id="bus49" type="bus_bus" depart="460.79" departLane="best" from="-344435194#0" to="-11813804#1"/>
    <trip id="bus50" type="bus_bus" depart="470.19" departLane="best" departSpeed="max" from="54499608" to="722149899"/>
    <trip id="bus51" type="bus_bus" depart="479.59" departLane="best" from="-11812284#3" to="30678557"/>
    <trip id="bus52" type="bus_bus" depart="489.00" departLane="best" from="11694981#2" to="11943894"/>
    <trip id="bus53" type="bus_bus" depart="498.40" departLane="best" departSpeed="max" from="-315440549" to="544236764#2"/>
    <trip id="bus54" type="bus_bus" depart="507.80" departLane="best" from="-911068789#4" to="-302256387#1"/>
    <trip id="bus55" type="bus_bus" depart="517.21" departLane="best" from="11830914" to="302193664#1"/>
    <trip id="bus56" type="bus_bus" depart="526.61" departLane="best" from="-24850351#3" to="-625866894#7"/>
    <trip id="bus58" type="bus_bus" depart="545.42" departLane="best" from="-294921218#2" to="-306643542#2"/>
    <trip id="bus59" type="bus_bus" depart="554.82" departLane="best" from="-11813804#1" to="231026894#1"/>
    <trip id="bus60" type="bus_bus" depart="564.23" departLane="best" from="-294921218#0" to="619165566#1"/>
    <trip id="bus61" type="bus_bus" depart="573.63" departLane="best" departSpeed="max" from="-302193662" to="294294295#0"/>
    <trip id="bus62" type="bus_bus" depart="583.03" departLane="best" from="64890120#1" to="11949260#0"/>
    <trip id="bus63" type="bus_bus" depart="592.44" departLane="best" from="11694981#0" to="317788872#1"/>
    <trip id="bus64" type="bus_bus" depart="601.84" departLane="best" from="320948875#0" to="-294921192"/>
    <trip id="bus65" type="bus_bus" depart="611.25" departLane="best" from="-911068789#4" to="11812284#0"/>
    <trip id="bus66" type="bus_bus" depart="620.65" departLane="best" from="294921186#4" to="294294299#4"/>
    <trip id="bus67" type="bus_bus" depart="630.05" departLane="best" departSpeed="max" from="911068790" to="-11837601#1"/>
    <trip id="bus68" type="bus_bus" depart="639.46" departLane="best" departSpeed="max" from="-798425016" to="-756749111"/>
    <trip id="bus69" type="bus_bus" depart="648.86" departLane="best" from="-231027141#2" to="11741504"/>
    <trip id="bus70" type="bus_bus" depart="658.26" departLane="best" from="-911068789#2" to="-54490634"/>
    <trip id="bus71" type="bus_bus" depart="667.67" departLane="best" from="1035459376#3" to="54293047#1"/>
    <trip id="bus72" type="bus_bus" depart="677.07" departLane="best" from="946801108#3" to="458658634"/>
    <trip id="bus73" type="bus_bus" depart="686.48" departLane="best" from="807956164#3" to="625866894#3"/>
    <trip id="bus75" type="bus_bus" depart="705.28" departLane="best" from="11707462" to="-302256387#2"/>
    <trip id="bus76" type="bus_bus" depart="714.69" departLane="best" departSpeed="max" from="-798425016" to="-11813804#3"/>
    <trip id="bus77" type="bus_bus" depart="724.09" departLane="best" from="-625866899#1" to="911068789#3"/>
    <trip id="bus78" type="bus_bus" depart="733.49" departLane="best" departSpeed="max" from="-315440549" to="317788872#0"/>
    <trip id="bus79" type="bus_bus" depart="742.90" departLane="best" from="769549466#3" to="932572338#0"/>
    <trip id="bus80" type="bus_bus" depart="752.30" departLane="best" from="11833510#1" to="294921230"/>
    <trip id="bus81" type="bus_bus" depart="761.71" departLane="best" from="-11955833#1" to="-625866881#0"/>
    <trip id="bus83" type="bus_bus" depart="780.51" departLane="best" from="-11731871#2" to="11957342#1"/>
    <trip id="bus84" type="bus_bus" depart="789.92" departLane="best" from="11808030#0" to="51408163"/>
    <trip id="bus85" type="bus_bus" depart="799.32" departLane="best" from="-302191264#0" to="-11952697#0"/>
    <trip id="bus86" type="bus_bus" depart="808.72" departLane="best" from="55170192#4" to="-323751614"/>
    <trip id="bus87" type="bus_bus" depart="818.13" departLane="best" from="11947670#0" to="192390922#0"/>
    <trip id="bus88" type="bus_bus" depart="827.53" departLane="best" from="-868924670" to="11957342#0"/>
    <trip id="bus89" type="bus_bus" depart="836.94" departLane="best" departSpeed="max" from="11815526#0" to="64890120#0"/>
    <trip id="bus90" type="bus_bus" depart="846.34" departLane="best" from="-28685491#0" to="294921230"/>
    <trip id="bus91" type="bus_bus" depart="855.74" departLane="best" departSpeed="max" from="-302193662" to="1067803401"/>
    <trip id="bus92" type="bus_bus" depart="865.15" departLane="best" from="-469277827#4" to="30678267#0"/>
    <trip id="bus93" type="bus_bus" depart="874.55" departLane="best" from="946801108#2" to="932572338#1"/>
    <trip id="bus94" type="bus_bus" depart="883.95" departLane="best" from="-11815526#1" to="-302256387#1"/>
    <trip id="bus95" type="bus_bus" depart="893.36" departLane="best" departSpeed="max" from="-315440549" to="625866899#0"/>
    <trip id="bus96" type="bus_bus" depart="902.76" departLane="best" from="550521551" to="550521564"/>
    <trip id="bus97" type="bus_bus" depart="912.17" departLane="best" from="344435194#1" to="294921186#3"/>
    <trip id="bus98" type="bus_bus" depart="921.57" departLane="best" departSpeed="max" from="11952697#0" to="911068789#5"/>
    <trip id="bus99" type="bus_bus" depart="930.97" departLane="best" from="320948876#6" to="-625866889"/>
    <trip id="bus100" type="bus_bus" depart="940.38" departLane="best" from="231026891#5" to="659852576#1"/>
    <trip id="bus101" type="bus_bus" depart="949.78" departLane="best" from="-11948385#2" to="-11949260#1"/>
    <trip id="bus102" type="bus_bus" depart="959.19" departLane="best" from="-11835099#1" to="11943894"/>
    <trip id="bus103" type="bus_bus" depart="968.59" departLane="best" from="294921102#1" to="-302193673"/>
    <trip id="bus105" type="bus_bus" depart="987.40" departLane="best" from="440151790" to="-11835496#0"/>
    <trip id="bus106" type="bus_bus" depart="996.80" departLane="best" from="-911068789#4" to="-544236764#3"/>
    <trip id="bus108" type="bus_bus" depart="1015.61" departLane="best" from="294921223#1" to="11943894"/>
    <trip id="bus109" type="bus_bus" depart="1025.01" departLane="best" from="-11815530#1" to="550521591"/>
    <trip id="bus110" type="bus_bus" depart="1034.42" departLane="best" from="344435194#2" to="11956778#1"/>
    <trip id="bus111" type="bus_bus" depart="1043.82" departLane="best" from="317788870#2" to="54293047#1"/>
    <trip id="bus112" type="bus_bus" depart="1053.22" departLane="best" from="603015323#0" to="-302256387#1"/>
    <trip id="bus113" type="bus_bus" depart="1062.63" departLane="best" from="-302193677#1" to="-11943433#0"/>
    <trip id="bus114" type="bus_bus" depart="1072.03" departLane="best" from="544236765#0" to="807956164#9"/>
    <trip id="bus115" type="bus_bus" depart="1081.43" departLane="best" from="320948875#5" to="550521591"/>
    <trip id="bus116" type="bus_bus" depart="1090.84" departLane="best" from="-550521587#1" to="625866898#1"/>
    <trip id="bus117" type="bus_bus" depart="1100.24" departLane="best" from="317788872#2" to="54293092"/>
    <trip id="bus118" type="bus_bus" depart="1109.65" departLane="best" from="320948875#5" to="-469277827#3"/>
    <trip id="bus119" type="bus_bus" depart="1119.05" departLane="best" from="-294921186#1" to="344435194#1"/>
    <trip id="bus120" type="bus_bus" depart="1128.45" departLane="best" from="109349941#0" to="-625866893#0"/>
    <trip id="bus121" type="bus_bus" depart="1137.86" departLane="best" departSpeed="max" from="-11692935" to="-294921217#2"/>
    <trip id="bus122" type="bus_bus" depart="1147.26" departLane="best" from="-544236764#1" to="54293092"/>
    <trip id="bus123" type="bus_bus" depart="1156.66" departLane="best" departSpeed="max" from="807956164#0" to="-54490634"/>
    <trip id="bus124" type="bus_bus" depart="1166.07" departLane="best" departSpeed="max" from="147003984" to="109349945"/>
    <trip id="bus125" type="bus_bus" depart="1175.47" departLane="best" from="695618950" to="-11949260#1"/>
    <trip id="bus126" type="bus_bus" depart="1184.88" departLane="best" from="807956164#4" to="-294921102#1"/>
    <trip id="bus127" type="bus_bus" depart="1194.28" departLane="best" from="-11835496#2" to="11705449"/>
    <trip id="bus128" type="bus_bus" depart="1203.68" departLane="best" from="294921186#4" to="-625866895#1"/>
    <trip id="bus129" type="bus_bus" depart="1213.09" departLane="best" from="11949435#0" to="11832520#3"/>
    <trip id="bus130" type="bus_bus" depart="1222.49" departLane="best" departSpeed="max" from="-659852576#2" to="11952697#1"/>
    <trip id="bus131" type="bus_bus" depart="1231.89" departLane="best" from="-302256387#3" to="294921217#2"/>
    <trip id="bus132" type="bus_bus" depart="1241.30" departLane="best" from="11829415#1" to="299800397#0"/>
    <trip id="bus133" type="bus_bus" depart="1250.70" departLane="best" from="294921223#2" to="294294299#0"/>
    <trip id="bus134" type="bus_bus" depart="1260.11" departLane="best" from="-625866892#2" to="-11824015#0"/>
    <trip id="bus135" type="bus_bus" depart="1269.51" departLane="best" from="231026892#0" to="-696036958"/>
    <trip id="bus136" type="bus_bus" depart="1278.91" departLane="best" from="-469277827#1" to="51408162"/>
    <trip id="bus137" type="bus_bus" depart="1288.32" departLane="best" from="294921107#1" to="-625866892#0"/>
    <trip id="bus138" type="bus_bus" depart="1297.72" departLane="best" departSpeed="max" from="-798425016" to="-619165566#0"/>
    <trip id="bus139" type="bus_bus" depart="1307.12" departLane="best" from="695620966" to="294294299#8"/>
    <trip id="bus140" type="bus_bus" depart="1316.53" departLane="best" from="619165566#0" to="147006426"/>
    <trip id="bus141" type="bus_bus" depart="1325.93" departLane="best" from="-344435171#3" to="11943433#4"/>
    <trip id="bus142" type="bus_bus" depart="1335.34" departLane="best" departSpeed="max" from="-1033988118" to="-55170192#1"/>
    <trip id="bus143" type="bus_bus" depart="1344.74" departLane="best" from="153284384#0" to="11810930#2"/>
    <trip id="bus144" type="bus_bus" depart="1354.14" departLane="best" from="11694981#0" to="603015328#1"/>
    <trip id="bus145" type="bus_bus" depart="1363.55" departLane="best" from="317788870#2" to="-24850351#2"/>
    <trip id="bus147" type="bus_bus" depart="1382.36" departLane="best" from="320948876#8" to="30678267#0"/>
    <trip id="bus148" type="bus_bus" depart="1391.76" departLane="best" from="231026982" to="-317788870#1"/>
    <trip id="bus149" type="bus_bus" depart="1401.16" departLane="best" departSpeed="max" from="-807956164#9" to="231026893#1"/>
    <trip id="bus151" type="bus_bus" depart="1419.97" departLane="best" from="153284384#1" to="-1035459376#1"/>
    <trip id="bus152" type="bus_bus" depart="1429.37" departLane="best" from="-11835099#1" to="11698345"/>
    <trip id="bus153" type="bus_bus" depart="1438.78" departLane="best" from="-231026892#1" to="769549465#3"/>
    <trip id="bus154" type="bus_bus" depart="1448.18" departLane="best" from="11813804#4" to="-11810930#0"/>
    <trip id="bus155" type="bus_bus" depart="1457.59" departLane="best" from="-302193677#1" to="51408162"/>
    <trip id="bus156" type="bus_bus" depart="1466.99" departLane="best" from="1058777101#4" to="320948876#7"/>
    <trip id="bus157" type="bus_bus" depart="1476.39" departLane="best" from="231026894#0" to="911068791#1"/>
    <trip id="bus158" type="bus_bus" depart="1485.80" departLane="best" from="11947670#1" to="747249641#3"/>
    <trip id="bus159" type="bus_bus" depart="1495.20" departLane="best" from="55170192#6" to="147006425#5"/>
    <trip id="bus160" type="bus_bus" depart="1504.60" departLane="best" from="294921107#1" to="11831739#2"/>
    <trip id="bus161" type="bus_bus" depart="1514.01" departLane="best" from="344435184#1" to="11943433#4"/>
    <trip id="bus162" type="bus_bus" depart="1523.41" departLane="best" from="590848499-AddedOffRampEdge" to="306643541"/>
    <trip id="bus163" type="bus_bus" depart="1532.82" departLane="best" from="11694981#11" to="-344435194#1"/>
    <trip id="bus164" type="bus_bus" depart="1542.22" departLane="best" from="302256388#0" to="11835098#1"/>
    <trip id="bus165" type="bus_bus" depart="1551.62" departLane="best" departSpeed="max" from="-11815530#3" to="-550521597#0"/>
    <trip id="bus166" type="bus_bus" depart="1561.03" departLane="best" from="-317788871#0" to="-625866898#3"/>
    <trip id="bus167" type="bus_bus" depart="1570.43" departLane="best" from="11831739#0" to="-11961660#1"/>
    <trip id="bus168" type="bus_bus" depart="1579.83" departLane="best" from="294294299#3" to="-11815526#1"/>
    <trip id="bus169" type="bus_bus" depart="1589.24" departLane="best" from="-807956164#5" to="11853571"/>
    <trip id="bus170" type="bus_bus" depart="1598.64" departLane="best" from="-852618779#0" to="-302193680"/>
    <trip id="bus171" type="bus_bus" depart="1608.05" departLane="best" from="-911068789#0" to="619165566#1"/>
    <trip id="bus172" type="bus_bus" depart="1617.45" departLane="best" from="11853134#0" to="294921107#2"/>
    <trip id="bus173" type="bus_bus" depart="1626.85" departLane="best" from="-659852576#1" to="-1035459376#1"/>
    <trip id="bus175" type="bus_bus" depart="1645.66" departLane="best" from="469277827#6" to="747249642#2"/>
    <trip id="bus176" type="bus_bus" depart="1655.06" departLane="best" from="-868924670" to="306643542#3"/>
    <trip id="bus178" type="bus_bus" depart="1673.87" departLane="best" from="-294921157" to="-306643542#1"/>
    <trip id="bus179" type="bus_bus" depart="1683.28" departLane="best" departSpeed="max" from="-550521591" to="294294299#8"/>
    <trip id="bus181" type="bus_bus" depart="1702.08" departLane="best" from="1093934999" to="-11955833#1"/>
    <trip id="bus182" type="bus_bus" depart="1711.49" departLane="best" from="11955833#0" to="-11694981#2"/>
    <trip id="bus183" type="bus_bus" depart="1720.89" departLane="best" from="-769549465#0" to="11949219#0"/>
    <trip id="bus184" type="bus_bus" depart="1730.29" departLane="best" from="-11694981#2" to="231027141#2"/>
    <trip id="bus185" type="bus_bus" depart="1739.70" departLane="best" from="-11949121" to="11808030#0"/>
    <trip id="bus186" type="bus_bus" depart="1749.10" departLane="best" departSpeed="max" from="-11730326#2" to="1035459376#1"/>
    <trip id="bus187" type="bus_bus" depart="1758.51" departLane="best" departSpeed="max" from="-294921102#2" to="-695620966"/>
    <trip id="bus188" type="bus_bus" depart="1767.91" departLane="best" from="302193664#3" to="440151789#0"/>
    <trip id="bus189" type="bus_bus" depart="1777.31" departLane="best" from="-302256386#0" to="-11832520#4"/>
    <trip id="bus190" type="bus_bus" depart="1786.72" departLane="best" from="946801108#3" to="-807956164#0"/>
    <trip id="bus191" type="bus_bus" depart="1796.12" departLane="best" from="147006425#5" to="317788871#4"/>
    <trip id="bus193" type="bus_bus" depart="1814.93" departLane="best" from="756749111" to="-302193664#2"/>
    <trip id="bus194" type="bus_bus" depart="1824.33" departLane="best" departSpeed="max" from="-11692935" to="-231026894#1"/>
    <trip id="bus195" type="bus_bus" depart="1833.74" departLane="best" departSpeed="max" from="-11943894" to="294294295#0"/>
    <trip id="bus196" type="bus_bus" depart="1843.14" departLane="best" from="293149229#3" to="315440549"/>
    <trip id="bus197" type="bus_bus" depart="1852.54" departLane="best" from="-11961660#4" to="147006423-AddedOnRampEdge"/>
    <trip id="bus198" type="bus_bus" depart="1861.95" departLane="best" from="302191269" to="-11949260#0"/>
    <trip id="bus199" type="bus_bus" depart="1871.35" departLane="best" from="-11835496#2" to="-11694981#1"/>
    <trip id="bus200" type="bus_bus" depart="1880.76" departLane="best" from="-350992134" to="294294299#8"/>
    <trip id="bus201" type="bus_bus" depart="1890.16" departLane="best" from="769549466#4" to="1092594708"/>
    <trip id="bus202" type="bus_bus" depart="1899.56" departLane="best" from="294921092" to="-11829415#0"/>
    <trip id="bus203" type="bus_bus" depart="1908.97" departLane="best" from="291082531" to="231026892#0"/>
    <trip id="bus204" type="bus_bus" depart="1918.37" departLane="best" from="-11834854#0" to="315442379"/>
    <trip id="bus205" type="bus_bus" depart="1927.77" departLane="best" from="469277827#2" to="121635803"/>
    <trip id="bus206" type="bus_bus" depart="1937.18" departLane="best" from="30678490" to="-807956164#0"/>
    <trip id="bus207" type="bus_bus" depart="1946.58" departLane="best" departSpeed="max" from="-930316527#1" to="-911068790"/>
    <trip id="bus208" type="bus_bus" depart="1955.99" departLane="best" departSpeed="max" from="11810930#0" to="-769549465#1"/>
    <trip id="bus209" type="bus_bus" depart="1965.39" departLane="best" from="469277827#2" to="359242856#1"/>
    <trip id="bus210" type="bus_bus" depart="1974.79" departLane="best" from="11961660#3" to="36359452"/>
    <trip id="bus211" type="bus_bus" depart="1984.20" departLane="best" from="294294299#4" to="11707179#0"/>
    <trip id="bus212" type="bus_bus" depart="1993.60" departLane="best" from="294921218#0" to="798422325#3"/>
    <trip id="bus213" type="bus_bus" depart="2003.00" departLane="best" from="-317788870#2" to="344435171#2"/>
    <trip id="bus214" type="bus_bus" depart="2012.41" departLane="best" from="11829415#1" to="11815604#1"/>
    <trip id="bus215" type="bus_bus" depart="2021.81" departLane="best" from="-317788870#0" to="51408162"/>
    <trip id="bus216" type="bus_bus" depart="2031.22" departLane="best" from="344435184#1" to="-11835098#1"/>
    <trip id="bus217" type="bus_bus" depart="2040.62" departLane="best" from="550521551" to="-320948876#6"/>
    <trip id="bus218" type="bus_bus" depart="2050.02" departLane="best" from="-625866899#1" to="-11694981#4"/>
    <trip id="bus219" type="bus_bus" depart="2059.43" departLane="best" departSpeed="max" from="-294921102#2" to="320948876#3"/>
    <trip id="bus220" type="bus_bus" depart="2068.83" departLane="best" from="-55170192#1" to="550521582"/>
    <trip id="bus221" type="bus_bus" depart="2078.23" departLane="best" from="294294288" to="-544236764#2"/>
    <trip id="bus222" type="bus_bus" depart="2087.64" departLane="best" departSpeed="max" from="-1049118856" to="747249641#0"/>
    <trip id="bus223" type="bus_bus" depart="2097.04" departLane="best" from="-11824017#0" to="299800397#0"/>
    <trip id="bus227" type="bus_bus" depart="2134.66" departLane="best" from="-11825615#1" to="-306643542#3"/>
    <trip id="bus229" type="bus_bus" depart="2153.46" departLane="best" from="11824015#0" to="11700867"/>
    <trip id="bus230" type="bus_bus" depart="2162.87" departLane="best" from="299800400" to="-696036958"/>
    <trip id="bus231" type="bus_bus" depart="2172.27" departLane="best" from="294294295#0" to="-51408161#1"/>
    <trip id="bus232" type="bus_bus" depart="2181.68" departLane="best" from="-302193680" to="-11952697#0"/>
    <trip id="bus233" type="bus_bus" depart="2191.08" departLane="best" from="-231027348" to="-11949435#3"/>
    <trip id="bus234" type="bus_bus" depart="2200.48" departLane="best" from="11825615#0" to="315256198"/>
    <trip id="bus235" type="bus_bus" depart="2209.89" departLane="best" from="11701016" to="302193662"/>
    <trip id="bus237" type="bus_bus" depart="2228.70" departLane="best" from="-231026894#2" to="-1067803401"/>
    <trip id="bus238" type="bus_bus" depart="2238.10" departLane="best" from="11824017#0" to="-544236764#0"/>
    <trip id="bus239" type="bus_bus" depart="2247.50" departLane="best" from="852618779#0" to="11943894"/>
    <trip id="bus240" type="bus_bus" depart="2256.91" departLane="best" departSpeed="max" from="54490634" to="11824015#1"/>
    <trip id="bus241" type="bus_bus" depart="2266.31" departLane="best" from="11684003#0" to="11730326#1"/>
    <trip id="bus242" type="bus_bus" depart="2275.71" departLane="best" departSpeed="max" from="-231026995" to="-11810930#2"/>
    <trip id="bus243" type="bus_bus" depart="2285.12" departLane="best" from="696036958" to="11815530#3"/>
    <trip id="bus244" type="bus_bus" depart="2294.52" departLane="best" from="323751615" to="1093934999"/>
    <trip id="bus245" type="bus_bus" depart="2303.93" departLane="best" from="-11815530#0" to="231026893#1"/>
    <trip id="bus246" type="bus_bus" depart="2313.33" departLane="best" from="932572337" to="-11949435#2"/>
    <trip id="bus247" type="bus_bus" depart="2322.73" departLane="best" from="302256387#4" to="147006423"/>
    <trip id="bus248" type="bus_bus" depart="2332.14" departLane="best" departSpeed="max" from="315256157" to="-317788870#2"/>
    <trip id="bus249" type="bus_bus" depart="2341.54" departLane="best" departSpeed="max" from="11815526#0" to="11746133"/>
    <trip id="bus250" type="bus_bus" depart="2350.94" departLane="best" from="1035459376#2" to="54293041"/>
    <trip id="bus251" type="bus_bus" depart="2360.35" departLane="best" departSpeed="max" from="911068791#0" to="-625866893#0"/>
    <trip id="bus252" type="bus_bus" depart="2369.75" departLane="best" from="11952903#1" to="147006425#1"/>
    <trip id="bus253" type="bus_bus" depart="2379.16" departLane="best" departSpeed="max" from="294921223#0" to="722149900"/>
    <trip id="bus254" type="bus_bus" depart="2388.56" departLane="best" from="-294921091" to="-302256387#1"/>
    <trip id="bus255" type="bus_bus" depart="2397.96" departLane="best" from="-231026891#3" to="-11825615#1"/>
    <trip id="bus256" type="bus_bus" depart="2407.37" departLane="best" from="11945463" to="-55170192#6"/>
    <trip id="bus257" type="bus_bus" depart="2416.77" departLane="best" departSpeed="max" from="-294921230" to="294921217#0"/>
    <trip id="bus258" type="bus_bus" depart="2426.17" departLane="best" departSpeed="max" from="315256157" to="231026891#4"/>
    <trip id="bus259" type="bus_bus" depart="2435.58" departLane="best" from="231026891#2" to="625866899#1"/>
    <trip id="bus260" type="bus_bus" depart="2444.98" departLane="best" from="-930316527#0" to="11943433#0"/>
    <trip id="bus261" type="bus_bus" depart="2454.39" departLane="best" from="147006425#2" to="625486449#1"/>
    <trip id="bus262" type="bus_bus" depart="2463.79" departLane="best" from="344435171#4" to="-11824015#2"/>
    <trip id="bus263" type="bus_bus" depart="2473.19" departLane="best" from="-11961660#2" to="-625866894#0"/>
    <trip id="bus264" type="bus_bus" depart="2482.60" departLane="best" from="302193663" to="11949219#1"/>
    <trip id="bus265" type="bus_bus" depart="2492.00" departLane="best" from="-320948875#7" to="-11952697#1"/>