<?xml version="1.0" encoding="UTF-8"?>

<!-- generated on 2022-11-07 14:50:51.681820 by osmWebWizard.py v1_14_1+0000-f654d7b963e
<configuration>
    <allow-fringe.min-length value="1000.0"/>
    <end value="3600"/>
    <fringe-factor value="5.0"/>
    <fringe-start-attributes value="departSpeed=&quot;max&quot;"/>
    <lanes value="True"/>
    <min-distance value="300.0"/>
    <net-file value="C:\Users\difra\OneDrive\Documents\Pitt2022\CS1980\team-project\OSM_files\2022-11-07-14-50-35\osm.net.xml"/>
    <period value="3.1345921785864888"/>
    <route-file value="C:\Users\difra\OneDrive\Documents\Pitt2022\CS1980\team-project\OSM_files\2022-11-07-14-50-35\osm.passenger.rou.xml"/>
    <trip-attributes value="departLane=&quot;best&quot;"/>
    <output-trip-file value="C:\Users\difra\OneDrive\Documents\Pitt2022\CS1980\team-project\OSM_files\2022-11-07-14-50-35\osm.passenger.trips.xml"/>
    <prefix value="veh"/>
    <validate value="True"/>
    <vehicle-class value="passenger"/>
</configuration>
-->

<!-- generated on 2022-11-07 14:50:51 by Eclipse SUMO duarouter Version 1.14.1
<configuration xmlns:xsi="http://www.w3.org/2001/XMLSchema-instance" xsi:noNamespaceSchemaLocation="http://sumo.dlr.de/xsd/duarouterConfiguration.xsd">

    <input>
        <net-file value="C:\Users\difra\OneDrive\Documents\Pitt2022\CS1980\team-project\OSM_files\2022-11-07-14-50-35\osm.net.xml"/>
        <route-files value="C:\Users\difra\OneDrive\Documents\Pitt2022\CS1980\team-project\OSM_files\2022-11-07-14-50-35\osm.passenger.trips.xml"/>
    </input>

    <output>
        <output-file value="C:\Users\difra\OneDrive\Documents\Pitt2022\CS1980\team-project\OSM_files\2022-11-07-14-50-35\osm.passenger.trips.xml.tmp"/>
        <alternatives-output value="NUL"/>
        <write-trips value="true"/>
    </output>

    <time>
        <begin value="0"/>
        <end value="3600"/>
    </time>

    <report>
        <no-warnings value="true"/>
        <ignore-errors value="true"/>
        <no-step-log value="true"/>
    </report>

</configuration>
-->

<routes xmlns:xsi="http://www.w3.org/2001/XMLSchema-instance" xsi:noNamespaceSchemaLocation="http://sumo.dlr.de/xsd/routes_file.xsd">
    <vType id="veh_passenger" vClass="passenger"/>
    <trip id="veh0" type="veh_passenger" depart="0.00" departLane="best" from="291082531" to="-11694981#4"/>
    <trip id="veh1" type="veh_passenger" depart="3.13" departLane="best" from="-344435194#0" to="-320948876#7"/>
    <trip id="veh2" type="veh_passenger" depart="6.27" departLane="best" departSpeed="max" from="302256387#0" to="294798465#2"/>
    <trip id="veh3" type="veh_passenger" depart="9.40" departLane="best" departSpeed="max" from="590848499" to="-11837601#3"/>
    <trip id="veh4" type="veh_passenger" depart="12.54" departLane="best" from="109349945" to="-11695441#2"/>
    <trip id="veh5" type="veh_passenger" depart="15.67" departLane="best" from="-302256386#1" to="11943894"/>
    <trip id="veh6" type="veh_passenger" depart="18.81" departLane="best" from="-11694981#7" to="-317788870#2"/>
    <trip id="veh7" type="veh_passenger" depart="21.94" departLane="best" departSpeed="max" from="293149229#0" to="121635803"/>
    <trip id="veh8" type="veh_passenger" depart="25.08" departLane="best" from="-302256387#3" to="231026891#2"/>
    <trip id="veh9" type="veh_passenger" depart="28.21" departLane="best" from="344435184#0" to="-1035459376#3"/>
    <trip id="veh10" type="veh_passenger" depart="31.35" departLane="best" from="344435171#3" to="294921217#1"/>
    <trip id="veh11" type="veh_passenger" depart="34.48" departLane="best" from="-625866895#1" to="-294921093"/>
    <trip id="veh12" type="veh_passenger" depart="37.62" departLane="best" from="756749111" to="-930316527#0"/>
    <trip id="veh13" type="veh_passenger" depart="40.75" departLane="best" from="-11835496#1" to="-11948385#0"/>
    <trip id="veh14" type="veh_passenger" depart="43.88" departLane="best" departSpeed="max" from="54490634" to="231026995"/>
    <trip id="veh15" type="veh_passenger" depart="47.02" departLane="best" from="344435171#5" to="306643538"/>
    <trip id="veh16" type="veh_passenger" depart="50.15" departLane="best" from="11947670#1" to="807956164#3"/>
    <trip id="veh17" type="veh_passenger" depart="53.29" departLane="best" from="-911068789#0" to="121635803"/>
    <trip id="veh18" type="veh_passenger" depart="56.42" departLane="best" from="469277827#0" to="264591636#3"/>
    <trip id="veh19" type="veh_passenger" depart="59.56" departLane="best" departSpeed="max" from="54490656" to="147006425#6"/>
    <trip id="veh20" type="veh_passenger" depart="62.69" departLane="best" from="294921186#0" to="-11810930#3"/>
    <trip id="veh21" type="veh_passenger" depart="65.83" departLane="best" from="-306643542#4" to="-625866898#0"/>
    <trip id="veh22" type="veh_passenger" depart="68.96" departLane="best" from="-11825615#1" to="-344435183"/>
    <trip id="veh23" type="veh_passenger" depart="72.10" departLane="best" departSpeed="max" from="-11853571" to="-625866892#4"/>
    <trip id="veh24" type="veh_passenger" depart="75.23" departLane="best" from="28685491#0" to="1067803401"/>
    <trip id="veh25" type="veh_passenger" depart="78.36" departLane="best" from="-807956164#8" to="-317788872#3"/>
    <trip id="veh26" type="veh_passenger" depart="81.50" departLane="best" from="-344435171#0" to="625866898#3"/>
    <trip id="veh28" type="veh_passenger" depart="87.77" departLane="best" from="-231027178" to="11694981#2"/>
    <trip id="veh29" type="veh_passenger" depart="90.90" departLane="best" departSpeed="max" from="911068790" to="293149229#4"/>
    <trip id="veh30" type="veh_passenger" depart="94.04" departLane="best" departSpeed="max" from="11952754" to="294921102#2"/>
    <trip id="veh31" type="veh_passenger" depart="97.17" departLane="best" from="544236764#0" to="319989347#1"/>
    <trip id="veh32" type="veh_passenger" depart="100.31" departLane="best" from="-315256157" to="-11731265#1"/>
    <trip id="veh33" type="veh_passenger" depart="103.44" departLane="best" from="-302193664#2" to="64890120#1"/>
    <trip id="veh34" type="veh_passenger" depart="106.58" departLane="best" from="550521547" to="-798422325#3"/>
    <trip id="veh35" type="veh_passenger" depart="109.71" departLane="best" departSpeed="max" from="293149229#0" to="11705449"/>
    <trip id="veh36" type="veh_passenger" depart="112.85" departLane="best" from="625866891#0" to="11825615#1"/>
    <trip id="veh37" type="veh_passenger" depart="115.98" departLane="best" from="-323751616" to="-544236762#0"/>
    <trip id="veh38" type="veh_passenger" depart="119.11" departLane="best" from="11956778#1" to="-550521598"/>
    <trip id="veh40" type="veh_passenger" depart="125.38" departLane="best" from="1035459376#3" to="-320948876#2"/>
    <trip id="veh41" type="veh_passenger" depart="128.52" departLane="best" from="946801108#0" to="11947670#1"/>
    <trip id="veh42" type="veh_passenger" depart="131.65" departLane="best" from="-11835099#0" to="-11812284#1"/>
    <trip id="veh43" type="veh_passenger" depart="134.79" departLane="best" departSpeed="max" from="-11943894" to="293149228#0"/>
    <trip id="veh44" type="veh_passenger" depart="137.92" departLane="best" from="320948875#6" to="11807972"/>
    <trip id="veh45" type="veh_passenger" depart="141.06" departLane="best" from="-11815526#1" to="11694981#4"/>
    <trip id="veh46" type="veh_passenger" depart="144.19" departLane="best" from="932572338#0" to="11955833#0"/>
    <trip id="veh47" type="veh_passenger" depart="147.33" departLane="best" departSpeed="max" from="807956164#0" to="544236762#0"/>
    <trip id="veh48" type="veh_passenger" depart="150.46" departLane="best" departSpeed="max" from="-1049118856" to="302193664#3"/>
    <trip id="veh49" type="veh_passenger" depart="153.60" departLane="best" from="294294299#3" to="11957342#7"/>
    <trip id="veh50" type="veh_passenger" depart="156.73" departLane="best" from="-344435171#0" to="293149229#4"/>
    <trip id="veh51" type="veh_passenger" depart="159.86" departLane="best" from="11747683#0" to="722149899"/>
    <trip id="veh52" type="veh_passenger" depart="163.00" departLane="best" from="550521547" to="-550521598"/>
    <trip id="veh53" type="veh_passenger" depart="166.13" departLane="best" departSpeed="max" from="11833510#0" to="-302193677#0"/>
    <trip id="veh54" type="veh_passenger" depart="169.27" departLane="best" from="625866881#2" to="550521546"/>
    <trip id="veh55" type="veh_passenger" depart="172.40" departLane="best" departSpeed="max" from="-550521591" to="293149229#3"/>
    <trip id="veh56" type="veh_passenger" depart="175.54" departLane="best" from="231026891#0" to="-291082531"/>
    <trip id="veh57" type="veh_passenger" depart="178.67" departLane="best" from="30678557" to="11961660#1"/>
    <trip id="veh58" type="veh_passenger" depart="181.81" departLane="best" from="317788872#0" to="11956778#0"/>
    <trip id="veh59" type="veh_passenger" depart="184.94" departLane="best" departSpeed="max" from="-1033988118" to="-852618779#0"/>
    <trip id="veh60" type="veh_passenger" depart="188.08" departLane="best" departSpeed="max" from="-11692935" to="625866893#1"/>
    <trip id="veh61" type="veh_passenger" depart="191.21" departLane="best" from="550521564" to="458658634"/>
    <trip id="veh62" type="veh_passenger" depart="194.34" departLane="best" from="-550521597#0" to="-11815530#1"/>
    <trip id="veh63" type="veh_passenger" depart="197.48" departLane="best" from="-11832520#4" to="11839510#0"/>
    <trip id="veh65" type="veh_passenger" depart="203.75" departLane="best" departSpeed="max" from="315256157" to="-231026891#4"/>
    <trip id="veh66" type="veh_passenger" depart="206.88" departLane="best" from="11815530#0" to="121635803"/>
    <trip id="veh68" type="veh_passenger" depart="213.15" departLane="best" departSpeed="max" from="109349955#0" to="-319989349#1"/>
    <trip id="veh69" type="veh_passenger" depart="216.29" departLane="best" from="11948229#1" to="306643538"/>
    <trip id="veh70" type="veh_passenger" depart="219.42" departLane="best" departSpeed="max" from="-294921230" to="-769549465#3"/>
    <trip id="veh71" type="veh_passenger" depart="222.56" departLane="best" from="11695441#1" to="11949219#1"/>
    <trip id="veh72" type="veh_passenger" depart="225.69" departLane="best" departSpeed="max" from="-11949219#1" to="-323751614"/>
    <trip id="veh73" type="veh_passenger" depart="228.83" departLane="best" from="-625866894#6" to="231026891#0"/>
    <trip id="veh74" type="veh_passenger" depart="231.96" departLane="best" departSpeed="max" from="-315440549" to="-320948876#3"/>
    <trip id="veh75" type="veh_passenger" depart="235.09" departLane="best" from="-11823798" to="293149229#1"/>
    <trip id="veh76" type="veh_passenger" depart="238.23" departLane="best" from="-315256157" to="619165566#1"/>
    <trip id="veh77" type="veh_passenger" depart="241.36" departLane="best" departSpeed="max" from="54490656" to="-11832520#3"/>
    <trip id="veh78" type="veh_passenger" depart="244.50" departLane="best" from="-317788871#3" to="294294299#8"/>
    <trip id="veh79" type="veh_passenger" depart="247.63" departLane="best" departSpeed="max" from="625866898#0" to="147006425#1"/>
    <trip id="veh80" type="veh_passenger" depart="250.77" departLane="best" departSpeed="max" from="11815526#0" to="320948876#1"/>
    <trip id="veh81" type="veh_passenger" depart="253.90" departLane="best" from="344435171#5" to="-302256388#1"/>
    <trip id="veh82" type="veh_passenger" depart="257.04" departLane="best" from="-11837601#2" to="11812284#1"/>
    <trip id="veh83" type="veh_passenger" depart="260.17" departLane="best" departSpeed="max" from="109349955#0" to="11832520#0"/>
    <trip id="veh84" type="veh_passenger" depart="263.31" departLane="best" from="302193664#2" to="294294299#8"/>
    <trip id="veh85" type="veh_passenger" depart="266.44" departLane="best" from="911068789#3" to="-11949121"/>
    <trip id="veh86" type="veh_passenger" depart="269.57" departLane="best" from="1049118845#1" to="-932572338#1"/>
    <trip id="veh87" type="veh_passenger" depart="272.71" departLane="best" departSpeed="max" from="54490656" to="-544236762#2"/>
    <trip id="veh88" type="veh_passenger" depart="275.84" departLane="best" from="109349945" to="-625866892#4"/>
    <trip id="veh89" type="veh_passenger" depart="278.98" departLane="best" from="-317788872#3" to="625866891#2"/>
    <trip id="veh91" type="veh_passenger" depart="285.25" departLane="best" from="946801108#3" to="469277827#5"/>
    <trip id="veh92" type="veh_passenger" depart="288.38" departLane="best" departSpeed="max" from="807956164#0" to="625866892#3"/>
    <trip id="veh93" type="veh_passenger" depart="291.52" departLane="best" departSpeed="max" from="54490634" to="-294921191"/>
    <trip id="veh94" type="veh_passenger" depart="294.65" departLane="best" from="11825615#1" to="-320948875#0"/>
    <trip id="veh95" type="veh_passenger" depart="297.79" departLane="best" from="1041017537" to="-11815530#2"/>
    <trip id="veh96" type="veh_passenger" depart="300.92" departLane="best" from="-323751616" to="320948875#7"/>
    <trip id="veh97" type="veh_passenger" depart="304.06" departLane="best" from="11755256#0" to="11807972"/>
    <trip id="veh98" type="veh_passenger" depart="307.19" departLane="best" departSpeed="max" from="11952754" to="302193663"/>
    <trip id="veh99" type="veh_passenger" depart="310.32" departLane="best" from="-231026894#3" to="-695620966"/>
    <trip id="veh100" type="veh_passenger" depart="313.46" departLane="best" from="798422327" to="147006425#7"/>
    <trip id="veh101" type="veh_passenger" depart="316.59" departLane="best" from="11949219#0" to="315256198"/>
    <trip id="veh102" type="veh_passenger" depart="319.73" departLane="best" from="-11812284#0" to="153284384#0"/>
    <trip id="veh103" type="veh_passenger" depart="322.86" departLane="best" from="11833510#2" to="54293047#2"/>
    <trip id="veh104" type="veh_passenger" depart="326.00" departLane="best" departSpeed="max" from="-231026995" to="756749111"/>
    <trip id="veh105" type="veh_passenger" depart="329.13" departLane="best" from="-11825615#1" to="-302256387#1"/>
    <trip id="veh106" type="veh_passenger" depart="332.27" departLane="best" from="147006425#3" to="294294304"/>
    <trip id="veh107" type="veh_passenger" depart="335.40" departLane="best" from="-317788870#2" to="-11961660#1"/>
    <trip id="veh108" type="veh_passenger" depart="338.54" departLane="best" from="147006425#3" to="264591636#3"/>
    <trip id="veh109" type="veh_passenger" depart="341.67" departLane="best" from="1092594708" to="147006426-AddedOffRampEdge"/>
    <trip id="veh110" type="veh_passenger" depart="344.81" departLane="best" from="11837601#3" to="625866895#0"/>
    <trip id="veh111" type="veh_passenger" depart="347.94" departLane="best" from="-302191264#1" to="302193662"/>
    <trip id="veh112" type="veh_passenger" depart="351.07" departLane="best" departSpeed="max" from="-317788871#4" to="11705449"/>
    <trip id="veh113" type="veh_passenger" depart="354.21" departLane="best" from="294294288" to="-696036958"/>
    <trip id="veh115" type="veh_passenger" depart="360.48" departLane="best" from="-11824015#1" to="11825615#0"/>
    <trip id="veh116" type="veh_passenger" depart="363.61" departLane="best" from="946801108#1" to="932572338#0"/>
    <trip id="veh117" type="veh_passenger" depart="366.75" departLane="best" from="-11824015#2" to="-319989349#1"/>
    <trip id="veh118" type="veh_passenger" depart="369.88" departLane="best" from="-323751616" to="625866894#6"/>
    <trip id="veh119" type="veh_passenger" depart="373.02" departLane="best" from="550521582" to="550521591"/>
    <trip id="veh120" type="veh_passenger" depart="376.15" departLane="best" from="-807956164#7" to="-294921107#0"/>
    <trip id="veh121" type="veh_passenger" depart="379.29" departLane="best" from="469277827#6" to="294921223#4"/>
    <trip id="veh122" type="veh_passenger" depart="382.42" departLane="best" from="231026891#3" to="911068789#2"/>
    <trip id="veh123" type="veh_passenger" depart="385.55" departLane="best" departSpeed="max" from="293149229#0" to="-1049118845#1"/>
    <trip id="veh124" type="veh_passenger" depart="388.69" departLane="best" from="359242856#1" to="-696036958"/>
    <trip id="veh125" type="veh_passenger" depart="391.82" departLane="best" from="293149229#2" to="64890120#0"/>
    <trip id="veh126" type="veh_passenger" depart="394.96" departLane="best" from="-11956778#1" to="-11957342#3"/>
    <trip id="veh127" type="veh_passenger" depart="398.09" departLane="best" from="-11943433#5" to="121635803"/>
    <trip id="veh128" type="veh_passenger" depart="401.23" departLane="best" from="-344435183" to="231027141#0"/>
    <trip id="veh129" type="veh_passenger" depart="404.36" departLane="best" departSpeed="max" from="294921223#0" to="-317788872#0"/>
    <trip id="veh130" type="veh_passenger" depart="407.50" departLane="best" from="264591636#4" to="-55170192#1"/>
    <trip id="veh131" type="veh_passenger" depart="410.63" departLane="best" from="11831739#0" to="619165566#1"/>
    <trip id="veh132" type="veh_passenger" depart="413.77" departLane="best" from="544236765#0" to="-11943433#4"/>
    <trip id="veh133" type="veh_passenger" depart="416.90" departLane="best" departSpeed="max" from="109349955#0" to="-625866892#2"/>
    <trip id="veh134" type="veh_passenger" depart="420.04" departLane="best" departSpeed="max" from="-1033988118" to="317788872#1"/>
    <trip id="veh135" type="veh_passenger" depart="423.17" departLane="best" from="28685491#1" to="-550521597#0"/>
    <trip id="veh136" type="veh_passenger" depart="426.30" departLane="best" from="302256388#0" to="121635803"/>
    <trip id="veh137" type="veh_passenger" depart="429.44" departLane="best" from="11684003#0" to="-1051176384"/>
    <trip id="veh138" type="veh_passenger" depart="432.57" departLane="best" departSpeed="max" from="-11824017#2" to="550521591"/>
    <trip id="veh139" type="veh_passenger" depart="435.71" departLane="best" from="619165566#0" to="121635803"/>
    <trip id="veh140" type="veh_passenger" depart="438.84" departLane="best" from="51408161#0" to="147006426-AddedOffRampEdge"/>
    <trip id="veh141" type="veh_passenger" depart="441.98" departLane="best" from="-550521597#0" to="59380116"/>
    <trip id="veh142" type="veh_passenger" depart="445.11" departLane="best" from="320948876#6" to="544236762#0"/>
    <trip id="veh143" type="veh_passenger" depart="448.25" departLane="best" from="590848499-AddedOffRampEdge" to="-317788872#3"/>
    <trip id="veh144" type="veh_passenger" depart="451.38" departLane="best" from="-317788872#3" to="-11949435#2"/>
    <trip id="veh145" type="veh_passenger" depart="454.52" departLane="best" from="317788872#1" to="550521591"/>
    <trip id="veh146" type="veh_passenger" depart="457.65" departLane="best" departSpeed="max" from="1051176384" to="264591636#4"/>
    <trip id="veh147" type="veh_passenger" depart="460.79" departLane="best" departSpeed="max" from="54499608" to="807956164#7"/>
    <trip id="veh148" type="veh_passenger" depart="463.92" departLane="best" from="344435184#2" to="550521591"/>
    <trip id="veh149" type="veh_passenger" depart="467.05" departLane="best" from="-11694981#4" to="30678267#0"/>
    <trip id="veh150" type="veh_passenger" depart="470.19" departLane="best" from="-625866892#4" to="625866894#1"/>
    <trip id="veh151" type="veh_passenger" depart="473.32" departLane="best" from="323751615" to="544236763"/>
    <trip id="veh152" type="veh_passenger" depart="476.46" departLane="best" from="344435184#2" to="-55170192#5"/>
    <trip id="veh153" type="veh_passenger" depart="479.59" departLane="best" from="319989349#0" to="-11952697#1"/>
    <trip id="veh154" type="veh_passenger" depart="482.73" departLane="best" departSpeed="max" from="54499608" to="54293092"/>
    <trip id="veh155" type="veh_passenger" depart="485.86" departLane="best" from="-302256388#1" to="402298704#0"/>
    <trip id="veh156" type="veh_passenger" depart="489.00" departLane="best" departSpeed="max" from="11810930#0" to="-747249641#3"/>
    <trip id="veh157" type="veh_passenger" depart="492.13" departLane="best" from="320948876#5" to="-344435171#0"/>
    <trip id="veh158" type="veh_passenger" depart="495.27" departLane="best" from="-11694981#2" to="-306643542#1"/>
    <trip id="veh159" type="veh_passenger" depart="498.40" departLane="best" from="-625866889" to="544236764#0"/>
    <trip id="veh160" type="veh_passenger" depart="501.53" departLane="best" from="798422325#3" to="-625866892#5"/>
    <trip id="veh161" type="veh_passenger" depart="504.67" departLane="best" from="293149228#0" to="11707462"/>
    <trip id="veh162" type="veh_passenger" depart="507.80" departLane="best" from="852618780" to="11957342#5"/>
    <trip id="veh163" type="veh_passenger" depart="510.94" departLane="best" from="64890120#0" to="-11957342#3"/>
    <trip id="veh164" type="veh_passenger" depart="514.07" departLane="best" departSpeed="max" from="807956164#0" to="-302193677#0"/>
    <trip id="veh165" type="veh_passenger" depart="517.21" departLane="best" from="769549466#2" to="-55170192#3"/>
    <trip id="veh166" type="veh_passenger" depart="520.34" departLane="best" departSpeed="max" from="-11943894" to="11813804#1"/>
    <trip id="veh167" type="veh_passenger" depart="523.48" departLane="best" from="302193664#1" to="-798422325#2"/>
    <trip id="veh168" type="veh_passenger" depart="526.61" departLane="best" from="153284384#1" to="11948168"/>
    <trip id="veh169" type="veh_passenger" depart="529.75" departLane="best" departSpeed="max" from="-930316527#1" to="147006425#5"/>
    <trip id="veh170" type="veh_passenger" depart="532.88" departLane="best" from="-320948875#3" to="299800397#0"/>
    <trip id="veh171" type="veh_passenger" depart="536.02" departLane="best" departSpeed="max" from="-1033988118" to="625866892#2"/>
    <trip id="veh172" type="veh_passenger" depart="539.15" departLane="best" from="11948229#0" to="302193664#1"/>
    <trip id="veh173" type="veh_passenger" depart="542.28" departLane="best" from="302256388#1" to="294294299#8"/>
    <trip id="veh174" type="veh_passenger" depart="545.42" departLane="best" departSpeed="max" from="-798425016" to="-11832520#2"/>
    <trip id="veh175" type="veh_passenger" depart="548.55" departLane="best" from="-55170192#5" to="54293041"/>
    <trip id="veh176" type="veh_passenger" depart="551.69" departLane="best" from="294921223#3" to="-696036958"/>
    <trip id="veh177" type="veh_passenger" depart="554.82" departLane="best" from="-550521598" to="11740262"/>
    <trip id="veh178" type="veh_passenger" depart="557.96" departLane="best" from="-11949435#1" to="11755256#0"/>
    <trip id="veh179" type="veh_passenger" depart="561.09" departLane="best" from="64890120#0" to="294798465#2"/>
    <trip id="veh181" type="veh_passenger" depart="567.36" departLane="best" departSpeed="max" from="-550521591" to="121635803"/>
    <trip id="veh182" type="veh_passenger" depart="570.50" departLane="best" departSpeed="max" from="-1033988118" to="-625866898#0"/>
    <trip id="veh183" type="veh_passenger" depart="573.63" departLane="best" from="11690285#1" to="147006425#7"/>
    <trip id="veh184" type="veh_passenger" depart="576.76" departLane="best" departSpeed="max" from="293149229#0" to="11831739#4"/>
    <trip id="veh185" type="veh_passenger" depart="579.90" departLane="best" from="11707462" to="-320948875#0"/>
    <trip id="veh186" type="veh_passenger" depart="583.03" departLane="best" departSpeed="max" from="11815526#0" to="603015328#1"/>
    <trip id="veh187" type="veh_passenger" depart="586.17" departLane="best" from="320948876#6" to="-294921218#0"/>
    <trip id="veh188" type="veh_passenger" depart="589.30" departLane="best" from="-11832520#3" to="11949219#0"/>
    <trip id="veh189" type="veh_passenger" depart="592.44" departLane="best" from="264591636#3" to="-911068790"/>
    <trip id="veh190" type="veh_passenger" depart="595.57" departLane="best" from="359242859#0" to="315256198"/>
    <trip id="veh191" type="veh_passenger" depart="598.71" departLane="best" from="294294290" to="-323751614"/>
    <trip id="veh192" type="veh_passenger" depart="601.84" departLane="best" from="-317788872#1" to="11834854#0"/>
    <trip id="veh193" type="veh_passenger" depart="604.98" departLane="best" departSpeed="max" from="54490634" to="-11834344"/>
    <trip id="veh194" type="veh_passenger" depart="608.11" departLane="best" from="1058777101#3" to="293149228#1"/>
    <trip id="veh195" type="veh_passenger" depart="611.25" departLane="best" from="-294921186#3" to="294921192"/>
    <trip id="veh196" type="veh_passenger" depart="614.38" departLane="best" departSpeed="max" from="30678106#0" to="317788872#0"/>
    <trip id="veh197" type="veh_passenger" depart="617.51" departLane="best" from="-11943433#4" to="11807972"/>
    <trip id="veh198" type="veh_passenger" depart="620.65" departLane="best" from="-28685491#0" to="747249641#5"/>
    <trip id="veh199" type="veh_passenger" depart="623.78" departLane="best" from="11835496#1" to="-11813804#1"/>
    <trip id="veh200" type="veh_passenger" depart="626.92" departLane="best" from="-317788872#3" to="54293041"/>
    <trip id="veh201" type="veh_passenger" depart="630.05" departLane="best" from="11807323" to="344435184#1"/>
    <trip id="veh202" type="veh_passenger" depart="633.19" departLane="best" from="147006425#4" to="659852576#2"/>
    <trip id="veh204" type="veh_passenger" depart="639.46" departLane="best" from="294921223#2" to="11943894"/>
    <trip id="veh205" type="veh_passenger" depart="642.59" departLane="best" from="469277827#1" to="121635803"/>
    <trip id="veh206" type="veh_passenger" depart="645.73" departLane="best" from="590848499-AddedOffRampEdge" to="30678350"/>
    <trip id="veh207" type="veh_passenger" depart="648.86" departLane="best" from="11815526#1" to="-550521596#1"/>
    <trip id="veh208" type="veh_passenger" depart="652.00" departLane="best" from="-317788872#2" to="293149229#3"/>
    <trip id="veh209" type="veh_passenger" depart="655.13" departLane="best" departSpeed="max" from="315256157" to="11949260#1"/>
    <trip id="veh210" type="veh_passenger" depart="658.26" departLane="best" from="24850351#1" to="-625866889"/>
    <trip id="veh211" type="veh_passenger" depart="661.40" departLane="best" departSpeed="max" from="-11824017#2" to="-625866895#0"/>
    <trip id="veh212" type="veh_passenger" depart="664.53" departLane="best" from="-344435183" to="-807956164#3"/>
    <trip id="veh213" type="veh_passenger" depart="667.67" departLane="best" departSpeed="max" from="-315440549" to="294921186#3"/>
    <trip id="veh214" type="veh_passenger" depart="670.80" departLane="best" from="294921186#2" to="-11825615#0"/>
    <trip id="veh216" type="veh_passenger" depart="677.07" departLane="best" from="1058777101#4" to="-317788872#1"/>
    <trip id="veh217" type="veh_passenger" depart="680.21" departLane="best" from="109349941#0" to="619165566#1"/>
    <trip id="veh218" type="veh_passenger" depart="683.34" departLane="best" from="147006422" to="294921191"/>
    <trip id="veh219" type="veh_passenger" depart="686.48" departLane="best" departSpeed="max" from="54490656" to="317788871#4"/>
    <trip id="veh220" type="veh_passenger" depart="689.61" departLane="best" from="-911068789#3" to="-1035459376#2"/>
    <trip id="veh221" type="veh_passenger" depart="692.74" departLane="best" from="-747249641#3" to="315440549"/>
    <trip id="veh222" type="veh_passenger" depart="695.88" departLane="best" departSpeed="max" from="54490656" to="696036958"/>
    <trip id="veh223" type="veh_passenger" depart="699.01" departLane="best" from="11949435#0" to="231026995"/>
    <trip id="veh224" type="veh_passenger" depart="702.15" departLane="best" from="-302256387#4" to="-320948876#2"/>
    <trip id="veh225" type="veh_passenger" depart="705.28" departLane="best" from="11694981#7" to="-11695441#1"/>
    <trip id="veh226" type="veh_passenger" depart="708.42" departLane="best" from="-625866894#1" to="294921092"/>
    <trip id="veh227" type="veh_passenger" depart="711.55" departLane="best" from="11812284#3" to="-231026891#3"/>
    <trip id="veh228" type="veh_passenger" depart="714.69" departLane="best" from="231027141#1" to="-11694981#8"/>
    <trip id="veh229" type="veh_passenger" depart="717.82" departLane="best" departSpeed="max" from="1013073720" to="147006423"/>
    <trip id="veh231" type="veh_passenger" depart="724.09" departLane="best" from="-11957342#1" to="11831739#0"/>
    <trip id="veh232" type="veh_passenger" depart="727.23" departLane="best" from="-11741389#1" to="11694981#11"/>
    <trip id="veh233" type="veh_passenger" depart="730.36" departLane="best" from="-302193664#3" to="-852618779#3"/>
    <trip id="veh234" type="veh_passenger" depart="733.49" departLane="best" from="30678499" to="11694981#11"/>
    <trip id="veh235" type="veh_passenger" depart="736.63" departLane="best" departSpeed="max" from="30678106#0" to="458658634"/>
    <trip id="veh236" type="veh_passenger" depart="739.76" departLane="best" from="-319989349#1" to="-11835496#1"/>
    <trip id="veh237" type="veh_passenger" depart="742.90" departLane="best" departSpeed="max" from="-11692935" to="11961660#1"/>
    <trip id="veh238" type="veh_passenger" depart="746.03" departLane="best" from="946801108#3" to="1049118856"/>
    <trip id="veh239" type="veh_passenger" depart="749.17" departLane="best" departSpeed="max" from="293149229#0" to="320948875#4"/>
    <trip id="veh240" type="veh_passenger" depart="752.30" departLane="best" departSpeed="max" from="293149229#0" to="315440549"/>
    <trip id="veh241" type="veh_passenger" depart="755.44" departLane="best" from="696036958" to="-317788870#2"/>
    <trip id="veh242" type="veh_passenger" depart="758.57" departLane="best" departSpeed="max" from="-11692935" to="-291082531"/>
    <trip id="veh243" type="veh_passenger" depart="761.71" departLane="best" from="-11949435#0" to="294294299#8"/>