<?xml version="1.0" encoding="UTF-8"?>

<!-- generated on 2022-11-07 14:50:48 by Eclipse SUMO netconvert Version 1.14.1
<configuration xmlns:xsi="http://www.w3.org/2001/XMLSchema-instance" xsi:noNamespaceSchemaLocation="http://sumo.dlr.de/xsd/netconvertConfiguration.xsd">

    <input>
        <type-files value="C:\Program%20Files%20(x86)\Eclipse\Sumo\data\typemap\osmNetconvert.typ.xml"/>
        <osm-files value="osm_bbox.osm.xml.gz"/>
    </input>

    <output>
        <output-file value="osm.net.xml"/>
        <output.street-names value="true"/>
        <output.original-names value="true"/>
    </output>

    <projection>
        <proj.utm value="true"/>
    </projection>

    <processing>
        <geometry.remove value="true"/>
        <roundabouts.guess value="true"/>
    </processing>

    <tls_building>
        <tls.discard-simple value="true"/>
        <tls.join value="true"/>
        <tls.guess-signals value="true"/>
        <tls.default-type value="actuated"/>
    </tls_building>

    <ramp_guessing>
        <ramps.guess value="true"/>
    </ramp_guessing>

    <junctions>
        <junctions.join value="true"/>
        <junctions.corner-detail value="5"/>
    </junctions>

    <report>
        <verbose value="true"/>
    </report>

</configuration>
-->

<net version="1.9" junctionCornerDetail="5" limitTurnSpeed="5.50" xmlns:xsi="http://www.w3.org/2001/XMLSchema-instance" xsi:noNamespaceSchemaLocation="http://sumo.dlr.de/xsd/net_file.xsd">

    <location netOffset="-585306.13,-4476203.06" convBoundary="0.00,0.00,3326.61,1860.03" origBoundary="-79.994213,40.431785,-79.954971,40.448535" projParameter="+proj=utm +zone=17 +ellps=WGS84 +datum=WGS84 +units=m +no_defs"/>

    <type id="highway.bridleway" priority="1" numLanes="1" speed="2.78" allow="pedestrian" oneway="1" width="2.00"/>
    <type id="highway.bus_guideway" priority="1" numLanes="1" speed="27.78" allow="bus" oneway="1"/>
    <type id="highway.cycleway" priority="1" numLanes="1" speed="5.56" allow="bicycle" oneway="0" width="1.00"/>
    <type id="highway.footway" priority="1" numLanes="1" speed="2.78" allow="pedestrian" oneway="1" width="2.00"/>
    <type id="highway.ford" priority="1" numLanes="1" speed="2.78" allow="army" oneway="0"/>
    <type id="highway.living_street" priority="2" numLanes="1" speed="2.78" disallow="tram rail_urban rail rail_electric rail_fast ship" oneway="0"/>
    <type id="highway.motorway" priority="14" numLanes="2" speed="39.44" allow="private emergency authority army vip passenger hov taxi bus coach delivery truck trailer motorcycle evehicle custom1 custom2" oneway="1"/>
    <type id="highway.motorway_link" priority="9" numLanes="1" speed="22.22" allow="private emergency authority army vip passenger hov taxi bus coach delivery truck trailer motorcycle evehicle custom1 custom2" oneway="1"/>
    <type id="highway.path" priority="1" numLanes="1" speed="5.56" allow="pedestrian bicycle" oneway="0" width="2.00"/>
    <type id="highway.pedestrian" priority="1" numLanes="1" speed="2.78" allow="pedestrian" oneway="1" width="2.00"/>
    <type id="highway.primary" priority="12" numLanes="2" speed="27.78" disallow="tram rail_urban rail rail_electric rail_fast ship" oneway="0"/>
    <type id="highway.primary_link" priority="7" numLanes="1" speed="22.22" disallow="tram rail_urban rail rail_electric rail_fast ship" oneway="0"/>
    <type id="highway.raceway" priority="15" numLanes="2" speed="83.33" allow="vip" oneway="0"/>
    <type id="highway.residential" priority="3" numLanes="1" speed="13.89" disallow="tram rail_urban rail rail_electric rail_fast ship" oneway="0"/>
    <type id="highway.secondary" priority="11" numLanes="1" speed="27.78" disallow="tram rail_urban rail rail_electric rail_fast ship" oneway="0"/>
    <type id="highway.secondary_link" priority="6" numLanes="1" speed="22.22" disallow="tram rail_urban rail rail_electric rail_fast ship" oneway="0"/>
    <type id="highway.service" priority="1" numLanes="1" speed="5.56" allow="pedestrian delivery bicycle" oneway="0"/>
    <type id="highway.stairs" priority="1" numLanes="1" speed="1.39" allow="pedestrian" oneway="1" width="2.00"/>
    <type id="highway.step" priority="1" numLanes="1" speed="1.39" allow="pedestrian" oneway="1" width="2.00"/>
    <type id="highway.steps" priority="1" numLanes="1" speed="1.39" allow="pedestrian" oneway="1" width="2.00"/>
    <type id="highway.tertiary" priority="10" numLanes="1" speed="22.22" disallow="tram rail_urban rail rail_electric rail_fast ship" oneway="0"/>
    <type id="highway.tertiary_link" priority="5" numLanes="1" speed="22.22" disallow="tram rail_urban rail rail_electric rail_fast ship" oneway="0"/>
    <type id="highway.track" priority="1" numLanes="1" speed="5.56" allow="pedestrian motorcycle moped bicycle" oneway="0"/>
    <type id="highway.trunk" priority="13" numLanes="2" speed="27.78" disallow="pedestrian bicycle tram rail_urban rail rail_electric rail_fast ship" oneway="0"/>
    <type id="highway.trunk_link" priority="8" numLanes="1" speed="22.22" disallow="pedestrian bicycle tram rail_urban rail rail_electric rail_fast ship" oneway="0"/>
    <type id="highway.unclassified" priority="4" numLanes="1" speed="13.89" disallow="tram rail_urban rail rail_electric rail_fast ship" oneway="0"/>
    <type id="highway.unsurfaced" priority="1" numLanes="1" speed="8.33" disallow="tram rail_urban rail rail_electric rail_fast ship" oneway="0"/>
    <type id="railway.highspeed" priority="21" numLanes="1" speed="69.44" allow="rail_fast" oneway="1"/>
    <type id="railway.light_rail" priority="19" numLanes="1" speed="27.78" allow="rail_urban" oneway="1"/>
    <type id="railway.preserved" priority="16" numLanes="1" speed="27.78" allow="rail" oneway="1"/>
    <type id="railway.rail" priority="20" numLanes="1" speed="44.44" allow="rail" oneway="1"/>
    <type id="railway.subway" priority="18" numLanes="1" speed="27.78" allow="rail_urban" oneway="1"/>
    <type id="railway.tram" priority="17" numLanes="1" speed="13.89" allow="tram" oneway="1"/>

    <edge id=":104201646_0" function="internal">
        <lane id=":104201646_0_0" index="0" disallow="tram rail_urban rail rail_electric rail_fast ship" speed="11.18" length="1.03" shape="1367.16,954.52 1366.24,954.97"/>
    </edge>
    <edge id=":104201646_1" function="internal">
        <lane id=":104201646_1_0" index="0" disallow="tram rail_urban rail rail_electric rail_fast ship" speed="11.18" length="0.34" shape="1364.92,952.06 1365.01,952.02 1365.07,951.99 1365.13,951.95 1365.21,951.89"/>
    </edge>
    <edge id=":104202020_0" function="internal">
        <lane id=":104202020_0_0" index="0" disallow="tram rail_urban rail rail_electric rail_fast ship" speed="5.94" length="9.09" shape="2223.63,1036.02 2221.56,1034.41 2219.67,1034.05 2217.95,1034.92 2216.40,1037.04"/>
    </edge>
    <edge id=":104202020_1" function="internal">
        <lane id=":104202020_1_0" index="0" disallow="tram rail_urban rail rail_electric rail_fast ship" speed="13.89" length="16.13" shape="2223.63,1036.02 2212.26,1024.58"/>
    </edge>
    <edge id=":104202020_2" function="internal">
        <lane id=":104202020_2_0" index="0" disallow="tram rail_urban rail rail_electric rail_fast ship" speed="9.10" length="4.50" shape="2223.63,1036.02 2221.00,1032.50 2220.96,1032.40"/>
    </edge>
    <edge id=":104202020_3" function="internal">
        <lane id=":104202020_3_0" index="0" disallow="tram rail_urban rail rail_electric rail_fast ship" speed="3.65" length="1.44" shape="2223.63,1036.02 2223.37,1034.60"/>
    </edge>
    <edge id=":104202020_16" function="internal">
        <lane id=":104202020_16_0" index="0" disallow="tram rail_urban rail rail_electric rail_fast ship" speed="9.10" length="11.43" shape="2220.96,1032.40 2219.86,1028.93 2220.22,1025.29 2222.08,1021.59"/>
    </edge>
    <edge id=":104202020_17" function="internal">
        <lane id=":104202020_17_0" index="0" disallow="tram rail_urban rail rail_electric rail_fast ship" speed="3.65" length="3.23" shape="2223.37,1034.60 2223.66,1033.75 2224.52,1033.48 2225.93,1033.79"/>
    </edge>
    <edge id=":104202020_4" function="internal">
        <lane id=":104202020_4_0" index="0" disallow="tram rail_urban rail rail_electric rail_fast ship" speed="7.79" length="11.46" shape="2224.71,1023.42 2223.39,1026.06 2223.16,1028.66 2224.00,1031.24 2225.93,1033.79"/>
    </edge>
    <edge id=":104202020_5" function="internal">
        <lane id=":104202020_5_0" index="0" disallow="tram rail_urban rail rail_electric rail_fast ship" speed="13.89" length="15.95" shape="2224.71,1023.42 2222.53,1026.66 2220.36,1030.11 2218.29,1033.63 2216.40,1037.04"/>
    </edge>
    <edge id=":104202020_6" function="internal">
        <lane id=":104202020_6_0" index="0" disallow="tram rail_urban rail rail_electric rail_fast ship" speed="7.73" length="14.86" shape="2224.71,1023.42 2221.85,1026.47 2218.82,1027.68 2215.63,1027.05 2212.26,1024.58"/>
    </edge>
    <edge id=":104202020_7" function="internal">
        <lane id=":104202020_7_0" index="0" disallow="tram rail_urban rail rail_electric rail_fast ship" speed="3.65" length="4.67" shape="2224.71,1023.42 2223.36,1023.95 2222.48,1023.82 2222.05,1023.03 2222.08,1021.59"/>
    </edge>
    <edge id=":104202020_8" function="internal">
        <lane id=":104202020_8_0" index="0" disallow="tram rail_urban rail rail_electric rail_fast ship" speed="6.18" length="9.05" shape="2214.50,1022.29 2216.55,1023.80 2218.50,1024.18 2220.34,1023.45 2222.08,1021.59"/>
    </edge>
    <edge id=":104202020_9" function="internal">
        <lane id=":104202020_9_0" index="0" disallow="tram rail_urban rail rail_electric rail_fast ship" speed="13.89" length="16.20" shape="2214.50,1022.29 2225.93,1033.79"/>
    </edge>
    <edge id=":104202020_10" function="internal">
        <lane id=":104202020_10_0" index="0" disallow="tram rail_urban rail rail_electric rail_fast ship" speed="9.53" length="4.43" shape="2214.50,1022.29 2217.03,1025.57 2217.12,1025.85"/>
    </edge>
    <edge id=":104202020_11" function="internal">
        <lane id=":104202020_11_0" index="0" disallow="tram rail_urban rail rail_electric rail_fast ship" speed="3.65" length="1.44" shape="2214.50,1022.29 2214.80,1023.70"/>
    </edge>
    <edge id=":104202020_18" function="internal">
        <lane id=":104202020_18_0" index="0" disallow="tram rail_urban rail rail_electric rail_fast ship" speed="9.53" length="11.65" shape="2217.12,1025.85 2218.18,1029.12 2217.97,1032.95 2216.40,1037.04"/>
    </edge>
    <edge id=":104202020_19" function="internal">
        <lane id=":104202020_19_0" index="0" disallow="tram rail_urban rail rail_electric rail_fast ship" speed="3.65" length="3.23" shape="2214.80,1023.70 2214.53,1024.56 2213.68,1024.85 2212.26,1024.58"/>
    </edge>
    <edge id=":104202020_12" function="internal">
        <lane id=":104202020_12_0" index="0" disallow="tram rail_urban rail rail_electric rail_fast ship" speed="8.28" length="11.93" shape="2213.58,1035.53 2214.76,1032.47 2214.94,1029.62 2214.11,1026.99 2212.26,1024.58"/>
    </edge>
    <edge id=":104202020_13" function="internal">
        <lane id=":104202020_13_0" index="0" disallow="tram rail_urban rail rail_electric rail_fast ship" speed="13.89" length="16.34" shape="2213.58,1035.53 2215.50,1032.07 2217.64,1028.44 2219.88,1024.88 2222.08,1021.59"/>
    </edge>
    <edge id=":104202020_14" function="internal">
        <lane id=":104202020_14_0" index="0" disallow="tram rail_urban rail rail_electric rail_fast ship" speed="7.56" length="15.53" shape="2213.58,1035.53 2216.22,1031.92 2219.15,1030.43 2222.39,1031.05 2225.93,1033.79"/>
    </edge>
    <edge id=":104202020_15" function="internal">
        <lane id=":104202020_15_0" index="0" disallow="tram rail_urban rail rail_electric rail_fast ship" speed="3.65" length="4.67" shape="2213.58,1035.53 2214.85,1034.85 2215.74,1034.87 2216.26,1035.60 2216.40,1037.04"/>
    </edge>
    <edge id=":104246167_0" function="internal">
        <lane id=":104246167_0_0" index="0" disallow="tram rail_urban rail rail_electric rail_fast ship" speed="22.22" length="14.40" shape="1644.33,1658.22 1631.82,1651.08"/>
    </edge>
    <edge id=":104246167_1" function="internal">
        <lane id=":104246167_1_0" index="0" disallow="tram rail_urban rail rail_electric rail_fast ship" speed="7.96" length="4.09" shape="1644.33,1658.22 1641.23,1655.81 1641.15,1655.67"/>
    </edge>
    <edge id=":104246167_2" function="internal">
        <lane id=":104246167_2_0" index="0" disallow="tram rail_urban rail rail_electric rail_fast ship" speed="3.65" length="1.44" shape="1644.33,1658.22 1643.69,1656.93"/>
    </edge>
    <edge id=":104246167_9" function="internal">
        <lane id=":104246167_9_0" index="0" disallow="tram rail_urban rail rail_electric rail_fast ship" speed="7.96" length="10.20" shape="1641.15,1655.67 1639.67,1653.00 1639.66,1649.78 1641.19,1646.17"/>
    </edge>
    <edge id=":104246167_10" function="internal">
        <lane id=":104246167_10_0" index="0" disallow="tram rail_urban rail rail_electric rail_fast ship" speed="3.65" length="3.23" shape="1643.69,1656.93 1643.73,1656.04 1644.48,1655.54 1645.92,1655.44"/>
    </edge>
    <edge id=":104246167_3" function="internal">
        <lane id=":104246167_3_0" index="0" disallow="tram rail_urban rail rail_electric rail_fast ship" speed="6.46" length="9.03" shape="1643.93,1647.82 1642.96,1650.11 1642.97,1652.14 1643.96,1653.92 1645.92,1655.44"/>
    </edge>
    <edge id=":104246167_4" function="internal">
        <lane id=":104246167_4_0" index="0" disallow="tram rail_urban rail rail_electric rail_fast ship" speed="8.08" length="14.23" shape="1643.93,1647.82 1641.46,1650.86 1638.62,1652.42 1635.41,1652.49 1631.82,1651.08"/>
    </edge>
    <edge id=":104246167_5" function="internal">
        <lane id=":104246167_5_0" index="0" disallow="tram rail_urban rail rail_electric rail_fast ship" speed="3.65" length="4.67" shape="1643.93,1647.82 1642.63,1648.43 1641.73,1648.36 1641.25,1647.61 1641.19,1646.17"/>
    </edge>
    <edge id=":104246167_6" function="internal">
        <lane id=":104246167_6_0" index="0" disallow="tram rail_urban rail rail_electric rail_fast ship" speed="6.60" length="9.15" shape="1633.41,1648.30 1635.71,1649.20 1637.77,1649.15 1639.60,1648.14 1641.19,1646.17"/>
    </edge>
    <edge id=":104246167_7" function="internal">
        <lane id=":104246167_7_0" index="0" disallow="tram rail_urban rail rail_electric rail_fast ship" speed="22.22" length="14.40" shape="1633.41,1648.30 1645.92,1655.44"/>
    </edge>
    <edge id=":104246167_8" function="internal">
        <lane id=":104246167_8_0" index="0" disallow="tram rail_urban rail rail_electric rail_fast ship" speed="3.65" length="1.44" shape="1633.41,1648.30 1634.05,1649.59"/>
    </edge>
    <edge id=":104246167_11" function="internal">
        <lane id=":104246167_11_0" index="0" disallow="tram rail_urban rail rail_electric rail_fast ship" speed="3.65" length="3.23" shape="1634.05,1649.59 1634.01,1650.49 1633.26,1650.98 1631.82,1651.08"/>
    </edge>
    <edge id=":104246289_0" function="internal">
        <lane id=":104246289_0_0" index="0" disallow="tram rail_urban rail rail_electric rail_fast ship" speed="6.62" length="9.18" shape="1259.47,1438.58 1257.17,1437.68 1255.10,1437.74 1253.26,1438.75 1251.65,1440.72"/>
    </edge>
    <edge id=":104246289_1" function="internal">
        <lane id=":104246289_1_0" index="0" disallow="tram rail_urban rail rail_electric rail_fast ship" speed="22.22" length="14.40" shape="1259.47,1438.58 1246.96,1431.44"/>
    </edge>
    <edge id=":104246289_2" function="internal">
        <lane id=":104246289_2_0" index="0" disallow="tram rail_urban rail rail_electric rail_fast ship" speed="7.61" length="3.28" shape="1259.47,1438.58 1257.04,1436.56 1256.99,1436.45"/>
    </edge>
    <edge id=":104246289_3" function="internal">
        <lane id=":104246289_3_0" index="0" disallow="tram rail_urban rail rail_electric rail_fast ship" speed="3.65" length="1.44" shape="1259.47,1438.58 1258.82,1437.29"/>
    </edge>
    <edge id=":104246289_12" function="internal">
        <lane id=":104246289_12_0" index="0" disallow="tram rail_urban rail rail_electric rail_fast ship" speed="7.61" length="9.57" shape="1256.99,1436.45 1255.94,1434.02 1256.17,1430.98 1257.73,1427.43"/>
    </edge>
    <edge id=":104246289_13" function="internal">
        <lane id=":104246289_13_0" index="0" disallow="tram rail_urban rail rail_electric rail_fast ship" speed="3.65" length="3.23" shape="1258.82,1437.29 1258.87,1436.39 1259.62,1435.90 1261.05,1435.80"/>
    </edge>
    <edge id=":104246289_4" function="internal">
        <lane id=":104246289_4_0" index="0" disallow="tram rail_urban rail rail_electric rail_fast ship" speed="6.99" length="10.49" shape="1248.54,1428.66 1251.50,1429.94 1254.01,1430.16 1256.09,1429.33 1257.73,1427.43"/>
    </edge>
    <edge id=":104246289_5" function="internal">
        <lane id=":104246289_5_0" index="0" disallow="tram rail_urban rail rail_electric rail_fast ship" speed="22.22" length="14.40" shape="1248.54,1428.66 1261.05,1435.80"/>
    </edge>
    <edge id=":104246289_6" function="internal">
        <lane id=":104246289_6_0" index="0" disallow="tram rail_urban rail rail_electric rail_fast ship" speed="7.95" length="4.09" shape="1248.54,1428.66 1251.65,1431.07 1251.73,1431.21"/>
    </edge>
    <edge id=":104246289_7" function="internal">
        <lane id=":104246289_7_0" index="0" disallow="tram rail_urban rail rail_electric rail_fast ship" speed="3.65" length="1.44" shape="1248.54,1428.66 1249.19,1429.95"/>
    </edge>
    <edge id=":104246289_14" function="internal">
        <lane id=":104246289_14_0" index="0" disallow="tram rail_urban rail rail_electric rail_fast ship" speed="7.95" length="10.21" shape="1251.73,1431.21 1253.21,1433.89 1253.21,1437.11 1251.65,1440.72"/>
    </edge>
    <edge id=":104246289_15" function="internal">
        <lane id=":104246289_15_0" index="0" disallow="tram rail_urban rail rail_electric rail_fast ship" speed="3.65" length="3.23" shape="1249.19,1429.95 1249.14,1430.84 1248.40,1431.34 1246.96,1431.44"/>
    </edge>
    <edge id=":104246289_8" function="internal">
        <lane id=":104246289_8_0" index="0" disallow="tram rail_urban rail rail_electric rail_fast ship" speed="6.44" length="9.03" shape="1248.92,1439.06 1249.90,1436.77 1249.90,1434.74 1248.92,1432.96 1246.96,1431.44"/>
    </edge>
    <edge id=":104246289_9" function="internal">
        <lane id=":104246289_9_0" index="0" disallow="tram rail_urban rail rail_electric rail_fast ship" speed="13.89" length="14.60" shape="1248.92,1439.06 1251.04,1436.05 1253.36,1433.26 1255.65,1430.47 1257.73,1427.43"/>
    </edge>
    <edge id=":104246289_10" function="internal">
        <lane id=":104246289_10_0" index="0" disallow="tram rail_urban rail rail_electric rail_fast ship" speed="8.10" length="14.23" shape="1248.92,1439.06 1251.41,1436.02 1254.26,1434.47 1257.47,1434.39 1261.05,1435.80"/>
    </edge>
    <edge id=":104246289_11" function="internal">
        <lane id=":104246289_11_0" index="0" disallow="tram rail_urban rail rail_electric rail_fast ship" speed="3.65" length="4.67" shape="1248.92,1439.06 1250.23,1438.45 1251.12,1438.53 1251.60,1439.28 1251.65,1440.72"/>
    </edge>
    <edge id=":104371210_0" function="internal">
        <lane id=":104371210_0_0" index="0" allow="pedestrian delivery bicycle" speed="6.08" length="7.57" shape="3098.41,909.41 3099.63,911.09 3100.03,912.76 3099.63,914.43 3098.41,916.10"/>
    </edge>
    <edge id=":104371210_1" function="internal">
        <lane id=":104371210_1_0" index="0" allow="pedestrian delivery bicycle" speed="3.91" length="2.52" shape="3096.12,913.87 3096.52,913.31 3096.66,912.76 3096.52,912.20 3096.12,911.64"/>
    </edge>
    <edge id=":104371210_2" function="internal">
        <lane id=":104371210_2_0" index="0" disallow="tram rail_urban rail rail_electric rail_fast ship" speed="3.65" length="4.67" shape="3096.12,913.87 3097.53,913.57 3098.38,913.84 3098.67,914.68 3098.41,916.10"/>
    </edge>
    <edge id=":104391761_0" function="internal">
        <lane id=":104391761_0_0" index="0" allow="pedestrian delivery bicycle" speed="4.80" length="5.37" shape="1317.30,933.93 1316.11,932.96 1315.00,932.70 1313.94,933.16 1312.96,934.34"/>
    </edge>
    <edge id=":104391761_1" function="internal">
        <lane id=":104391761_1_0" index="0" allow="pedestrian delivery bicycle" speed="5.56" length="10.17" shape="1317.30,933.93 1315.25,931.73 1313.69,930.35 1311.90,929.29 1309.16,928.07"/>
    </edge>
    <edge id=":104391761_2" function="internal">
        <lane id=":104391761_2_0" index="0" allow="pedestrian delivery bicycle" speed="5.56" length="10.82" shape="1317.30,933.93 1315.43,931.41 1314.49,928.92 1314.46,926.47 1315.36,924.06"/>
    </edge>
    <edge id=":104391761_3" function="internal">
        <lane id=":104391761_3_0" index="0" allow="pedestrian delivery bicycle" speed="3.65" length="4.67" shape="1317.30,933.93 1317.08,932.51 1317.40,931.67 1318.26,931.42 1319.66,931.77"/>
    </edge>
    <edge id=":104391761_4" function="internal">
        <lane id=":104391761_4_0" index="0" allow="pedestrian delivery bicycle" speed="5.56" length="6.77" shape="1318.14,925.64 1317.65,927.06 1317.74,928.55 1318.41,930.12 1319.66,931.77"/>
    </edge>
    <edge id=":104391761_5" function="internal">
        <lane id=":104391761_5_0" index="0" allow="pedestrian delivery bicycle" speed="5.56" length="10.13" shape="1318.14,925.64 1312.96,934.34"/>
    </edge>
    <edge id=":104391761_6" function="internal">
        <lane id=":104391761_6_0" index="0" allow="pedestrian delivery bicycle" speed="5.56" length="10.35" shape="1318.14,925.64 1316.52,927.67 1314.48,928.76 1312.02,928.89 1309.16,928.07"/>
    </edge>
    <edge id=":104391761_7" function="internal">
        <lane id=":104391761_7_0" index="0" allow="pedestrian delivery bicycle" speed="3.65" length="4.67" shape="1318.14,925.64 1316.86,926.29 1315.96,926.24 1315.46,925.50 1315.36,924.06"/>
    </edge>
    <edge id=":104391761_8" function="internal">
        <lane id=":104391761_8_0" index="0" allow="pedestrian delivery bicycle" speed="5.51" length="5.63" shape="1310.40,925.12 1312.03,925.61 1313.40,925.60 1314.51,925.08 1315.36,924.06"/>
    </edge>
    <edge id=":104391761_9" function="internal">
        <lane id=":104391761_9_0" index="0" allow="pedestrian delivery bicycle" speed="5.56" length="11.53" shape="1310.40,925.12 1313.31,926.46 1315.49,927.79 1317.44,929.45 1319.66,931.77"/>
    </edge>
    <edge id=":104391761_10" function="internal">
        <lane id=":104391761_10_0" index="0" allow="pedestrian delivery bicycle" speed="5.56" length="11.34" shape="1310.40,925.12 1313.02,926.73 1314.32,928.80 1314.30,931.34 1312.96,934.34"/>
    </edge>
    <edge id=":104391761_11" function="internal">
        <lane id=":104391761_11_0" index="0" allow="pedestrian delivery bicycle" speed="3.65" length="4.67" shape="1310.40,925.12 1311.19,926.33 1311.25,927.22 1310.57,927.80 1309.16,928.07"/>
    </edge>
    <edge id=":104391761_12" function="internal">
        <lane id=":104391761_12_0" index="0" allow="pedestrian delivery bicycle" speed="5.03" length="5.58" shape="1310.24,932.66 1310.93,931.14 1310.98,929.87 1310.39,928.85 1309.16,928.07"/>
    </edge>
    <edge id=":104391761_13" function="internal">
        <lane id=":104391761_13_0" index="0" allow="pedestrian delivery bicycle" speed="5.56" length="10.01" shape="1310.24,932.66 1315.36,924.06"/>
    </edge>
    <edge id=":104391761_14" function="internal">
        <lane id=":104391761_14_0" index="0" allow="pedestrian delivery bicycle" speed="5.56" length="11.65" shape="1310.24,932.66 1312.37,930.10 1314.65,929.10 1317.08,929.66 1319.66,931.77"/>
    </edge>
    <edge id=":104391761_15" function="internal">
        <lane id=":104391761_15_0" index="0" allow="pedestrian delivery bicycle" speed="3.65" length="4.67" shape="1310.24,932.66 1311.55,932.06 1312.44,932.14 1312.91,932.90 1312.96,934.34"/>
    </edge>
    <edge id=":104391774_0" function="internal">
        <lane id=":104391774_0_0" index="0" allow="pedestrian delivery bicycle" speed="3.65" length="4.67" shape="1277.02,992.48 1275.71,993.08 1274.82,993.00 1274.35,992.23 1274.30,990.79"/>
    </edge>
    <edge id=":104449752_0" function="internal">
        <lane id=":104449752_0_0" index="0" disallow="pedestrian bicycle tram rail_urban rail rail_electric rail_fast ship" speed="8.50" length="8.00" shape="1843.47,569.00 1845.54,570.38 1847.46,571.26 1849.22,571.62 1850.82,571.47"/>
    </edge>
    <edge id=":104449752_1" function="internal">
        <lane id=":104449752_1_0" index="0" disallow="tram rail_urban rail rail_electric rail_fast ship" speed="11.18" length="8.59" shape="1842.51,573.46 1850.82,571.47"/>
        <lane id=":104449752_1_1" index="1" disallow="tram rail_urban rail rail_electric rail_fast ship" speed="11.18" length="8.59" shape="1843.24,576.58 1851.64,574.56"/>
    </edge>
    <edge id=":104450927_0" function="internal">
        <lane id=":104450927_0_0" index="0" disallow="tram rail_urban rail rail_electric rail_fast ship" speed="12.53" length="27.39" shape="1794.48,886.72 1790.91,891.14 1785.90,897.40 1780.99,903.73 1777.71,908.36"/>
    </edge>
    <edge id=":104450927_1" function="internal">
        <lane id=":104450927_1_0" index="0" disallow="tram rail_urban rail rail_electric rail_fast ship" speed="6.05" length="14.92" shape="1794.48,886.72 1791.14,888.64 1787.61,887.92 1785.17,885.27 1785.10,881.41"/>
    </edge>
    <edge id=":104450927_2" function="internal">
        <lane id=":104450927_2_0" index="0" disallow="tram rail_urban rail rail_electric rail_fast ship" speed="3.65" length="4.67" shape="1794.48,886.72 1793.11,887.15 1792.23,886.96 1791.86,886.14 1791.99,884.71"/>
    </edge>
    <edge id=":104450927_3" function="internal">
        <lane id=":104450927_3_0" index="0" disallow="tram rail_urban rail rail_electric rail_fast ship" speed="5.95" length="14.38" shape="1788.11,882.51 1786.59,887.45 1786.74,889.47 1788.54,888.55 1791.99,884.71"/>
    </edge>
    <edge id=":104450927_4" function="internal">
        <lane id=":104450927_4_0" index="0" disallow="tram rail_urban rail rail_electric rail_fast ship" speed="11.18" length="27.89" shape="1788.11,882.51 1786.13,887.93 1783.24,895.60 1780.20,903.19 1777.71,908.36"/>
    </edge>
    <edge id=":104450927_5" function="internal">
        <lane id=":104450927_5_0" index="0" disallow="tram rail_urban rail rail_electric rail_fast ship" speed="3.65" length="1.44" shape="1788.11,882.51 1786.94,883.36"/>
    </edge>
    <edge id=":104450927_9" function="internal">
        <lane id=":104450927_9_0" index="0" disallow="tram rail_urban rail rail_electric rail_fast ship" speed="3.65" length="3.23" shape="1786.94,883.36 1786.05,883.46 1785.44,882.81 1785.10,881.41"/>
    </edge>
    <edge id=":104450927_6" function="internal">
        <lane id=":104450927_6_0" index="0" disallow="tram rail_urban rail rail_electric rail_fast ship" speed="11.18" length="27.25" shape="1774.98,906.69 1777.43,901.60 1780.38,894.21 1783.16,886.74 1785.10,881.41"/>
    </edge>
    <edge id=":104450927_7" function="internal">
        <lane id=":104450927_7_0" index="0" disallow="tram rail_urban rail rail_electric rail_fast ship" speed="12.53" length="27.81" shape="1774.98,906.69 1778.30,902.01 1783.29,895.56 1788.38,889.18 1791.99,884.71"/>
    </edge>
    <edge id=":104450927_8" function="internal">
        <lane id=":104450927_8_0" index="0" disallow="tram rail_urban rail rail_electric rail_fast ship" speed="3.65" length="1.33" shape="1774.98,906.69 1776.19,906.13"/>
    </edge>
    <edge id=":104450927_10" function="internal">
        <lane id=":104450927_10_0" index="0" disallow="tram rail_urban rail rail_electric rail_fast ship" speed="3.65" length="3.34" shape="1776.19,906.13 1776.29,906.09 1777.18,906.16 1777.66,906.92 1777.71,908.36"/>
    </edge>
    <edge id=":104450949_0" function="internal">
        <lane id=":104450949_0_0" index="0" disallow="tram rail_urban rail rail_electric rail_fast ship" speed="3.65" length="4.67" shape="1655.32,760.31 1655.21,761.75 1654.71,762.49 1653.82,762.53 1652.53,761.88"/>
    </edge>
    <edge id=":104472494_0" function="internal">
        <lane id=":104472494_0_0" index="0" disallow="tram rail_urban rail rail_electric rail_fast ship" speed="3.65" length="4.67" shape="1893.83,738.49 1894.43,739.80 1894.35,740.69 1893.59,741.16 1892.15,741.21"/>
    </edge>
    <edge id=":104507928_0" function="internal">
        <lane id=":104507928_0_0" index="0" disallow="tram rail_urban rail rail_electric rail_fast ship" speed="10.07" length="13.63" shape="3051.69,1153.61 3052.02,1150.24 3051.58,1147.16 3050.37,1144.36 3048.39,1141.84"/>
        <lane id=":104507928_0_1" index="1" disallow="tram rail_urban rail rail_electric rail_fast ship" speed="10.71" length="13.63" shape="3051.69,1153.61 3052.45,1148.69 3052.53,1144.71 3051.93,1141.68 3050.66,1139.59"/>
    </edge>
    <edge id=":104507928_2" function="internal">
        <lane id=":104507928_2_0" index="0" disallow="tram rail_urban rail rail_electric rail_fast ship" speed="27.78" length="12.68" shape="3057.48,1150.74 3048.39,1141.84"/>
        <lane id=":104507928_2_1" index="1" disallow="tram rail_urban rail rail_electric rail_fast ship" speed="27.78" length="12.68" shape="3059.73,1148.46 3050.66,1139.59"/>
        <lane id=":104507928_2_2" index="2" disallow="tram rail_urban rail rail_electric rail_fast ship" speed="27.78" length="12.68" shape="3061.98,1146.18 3052.93,1137.33"/>
        <lane id=":104507928_2_3" index="3" disallow="tram rail_urban rail rail_electric rail_fast ship" speed="27.78" length="12.68" shape="3064.22,1143.91 3055.19,1135.07"/>
    </edge>
    <edge id=":104507936_0" function="internal">