<?xml version="1.0" encoding="UTF-8"?>

<additional>

	<edgeData id="OtherData" file=".\data\edgeData" vTypes="DEFAULT_VEHTYPE" excludeEmpty="true"/>

</additional>
