<?xml version="1.0" encoding="UTF-8"?>

<additional>

	<edgeData id="EMSData" file=".\data\edgeData_EMS" vTypes="EMS_VEHICLE" excludeEmpty="true"/>
	<edgeData id="OtherData" file=".\data\edgeData_EMS" vTypes="DEFAULT_VEHTYPE" excludeEmpty="true"/>
	<edgeData id="AllData" file =".\data\edgeData_EMS" vTypes="DEFAULT_VEHTYPE EMS_VEHICLE" excludeEmpty="true"/>
	<inductionLoop id="det1_0" lane="E1_0" pos="10" file=".\data\detectorData" vTypes="EMS_VEHICLE"/>
	<inductionLoop id="det1_1" lane="E1_1" pos="10" file=".\data\detectorData" vTypes="EMS_VEHICLE"/>
	<inductionLoop id="det2_0" lane="E2_0" pos="10" file=".\data\detectorData" vTypes="EMS_VEHICLE"/>
	<inductionLoop id="det2_1" lane="E2_1" pos="10" file=".\data\detectorData" vTypes="EMS_VEHICLE"/>
	<inductionLoop id="det3_0" lane="E3_0" pos="10" file=".\data\detectorData" vTypes="EMS_VEHICLE"/>
	<inductionLoop id="det3_1" lane="E3_1" pos="10" file=".\data\detectorData" vTypes="EMS_VEHICLE"/>
	<inductionLoop id="det4_0" lane="E4_0" pos="10" file=".\data\detectorData" vTypes="EMS_VEHICLE"/>
	<inductionLoop id="det4_1" lane="E4_1" pos="10" file=".\data\detectorData" vTypes="EMS_VEHICLE"/>

</additional>
