<?xml version="1.0" encoding="UTF-8"?>

<!-- generated on 2022-11-22 14:46:01 by Eclipse SUMO netedit Version 1.14.1
<configuration xmlns:xsi="http://www.w3.org/2001/XMLSchema-instance" xsi:noNamespaceSchemaLocation="http://sumo.dlr.de/xsd/netconvertConfiguration.xsd">

    <output>
        <output-file value="C:\Users\connp\OneDrive\Documents\_Pitt\Traffic_Capstone\team-project\VerticalRoad\verticalNetwork.net.xml"/>
    </output>

    <processing>
        <offset.disable-normalization value="true"/>
    </processing>

    <junctions>
        <no-turnarounds value="true"/>
    </junctions>

    <netedit>
        <route-files value="C:\Users\connp\OneDrive\Documents\_Pitt\Traffic_Capstone\team-project\VerticalRoad\routes.rou.xml"/>
    </netedit>

</configuration>
-->

<net version="1.9" junctionCornerDetail="5" limitTurnSpeed="5.50" xmlns:xsi="http://www.w3.org/2001/XMLSchema-instance" xsi:noNamespaceSchemaLocation="http://sumo.dlr.de/xsd/net_file.xsd">

    <location netOffset="0.00,0.00" convBoundary="-100.00,100.00,100.00,500.00" origBoundary="10000000000.00,10000000000.00,-10000000000.00,-10000000000.00" projParameter="!"/>

    <edge id=":J3_0" function="internal">
        <lane id=":J3_0_0" index="0" speed="6.51" length="9.03" shape="-4.80,210.40 -5.15,207.95 -6.20,206.20 -7.95,205.15 -10.40,204.80"/>
    </edge>
    <edge id=":J3_1" function="internal">
        <lane id=":J3_1_0" index="0" speed="13.89" length="20.80" shape="-4.80,210.40 -4.80,189.60"/>
        <lane id=":J3_1_1" index="1" speed="13.89" length="20.80" shape="-1.60,210.40 -1.60,189.60"/>
    </edge>
    <edge id=":J3_3" function="internal">
        <lane id=":J3_3_0" index="0" speed="9.26" length="5.01" shape="-1.60,210.40 -0.89,205.44"/>
    </edge>
    <edge id=":J3_16" function="internal">
        <lane id=":J3_16_0" index="0" speed="9.26" length="14.34" shape="-0.89,205.44 -0.85,205.15 1.40,201.40 5.15,199.15 10.40,198.40"/>
    </edge>
    <edge id=":J3_4" function="internal">
        <lane id=":J3_4_0" index="0" speed="6.51" length="9.03" shape="10.40,204.80 7.95,205.15 6.20,206.20 5.15,207.95 4.80,210.40"/>
    </edge>
    <edge id=":J3_5" function="internal">
        <lane id=":J3_5_0" index="0" speed="13.89" length="20.80" shape="10.40,204.80 -10.40,204.80"/>
        <lane id=":J3_5_1" index="1" speed="13.89" length="20.80" shape="10.40,201.60 -10.40,201.60"/>
    </edge>
    <edge id=":J3_7" function="internal">
        <lane id=":J3_7_0" index="0" speed="9.26" length="5.01" shape="10.40,201.60 5.44,200.89"/>
    </edge>
    <edge id=":J3_17" function="internal">
        <lane id=":J3_17_0" index="0" speed="9.26" length="14.34" shape="5.44,200.89 5.15,200.85 1.40,198.60 -0.85,194.85 -1.60,189.60"/>
    </edge>
    <edge id=":J3_8" function="internal">
        <lane id=":J3_8_0" index="0" speed="6.51" length="9.03" shape="4.80,189.60 5.15,192.05 6.20,193.80 7.95,194.85 10.40,195.20"/>
    </edge>
    <edge id=":J3_9" function="internal">
        <lane id=":J3_9_0" index="0" speed="13.89" length="20.80" shape="4.80,189.60 4.80,210.40"/>
        <lane id=":J3_9_1" index="1" speed="13.89" length="20.80" shape="1.60,189.60 1.60,210.40"/>
    </edge>
    <edge id=":J3_11" function="internal">
        <lane id=":J3_11_0" index="0" speed="9.26" length="5.01" shape="1.60,189.60 0.89,194.56"/>
    </edge>
    <edge id=":J3_18" function="internal">
        <lane id=":J3_18_0" index="0" speed="9.26" length="14.34" shape="0.89,194.56 0.85,194.85 -1.40,198.60 -5.15,200.85 -10.40,201.60"/>
    </edge>
    <edge id=":J3_12" function="internal">
        <lane id=":J3_12_0" index="0" speed="6.51" length="9.03" shape="-10.40,195.20 -7.95,194.85 -6.20,193.80 -5.15,192.05 -4.80,189.60"/>
    </edge>
    <edge id=":J3_13" function="internal">
        <lane id=":J3_13_0" index="0" speed="13.89" length="20.80" shape="-10.40,195.20 10.40,195.20"/>
        <lane id=":J3_13_1" index="1" speed="13.89" length="20.80" shape="-10.40,198.40 10.40,198.40"/>
    </edge>
    <edge id=":J3_15" function="internal">
        <lane id=":J3_15_0" index="0" speed="9.26" length="5.01" shape="-10.40,198.40 -5.44,199.11"/>
    </edge>
    <edge id=":J3_19" function="internal">
        <lane id=":J3_19_0" index="0" speed="9.26" length="14.34" shape="-5.44,199.11 -5.15,199.15 -1.40,201.40 0.85,205.15 1.60,210.40"/>
    </edge>
    <edge id=":J4_0" function="internal">
        <lane id=":J4_0_0" index="0" speed="6.51" length="9.03" shape="-4.80,310.40 -5.15,307.95 -6.20,306.20 -7.95,305.15 -10.40,304.80"/>
    </edge>
    <edge id=":J4_1" function="internal">
        <lane id=":J4_1_0" index="0" speed="13.89" length="20.80" shape="-4.80,310.40 -4.80,289.60"/>
        <lane id=":J4_1_1" index="1" speed="13.89" length="20.80" shape="-1.60,310.40 -1.60,289.60"/>
    </edge>
    <edge id=":J4_3" function="internal">
        <lane id=":J4_3_0" index="0" speed="9.26" length="5.01" shape="-1.60,310.40 -0.89,305.44"/>
    </edge>
    <edge id=":J4_16" function="internal">
        <lane id=":J4_16_0" index="0" speed="9.26" length="14.34" shape="-0.89,305.44 -0.85,305.15 1.40,301.40 5.15,299.15 10.40,298.40"/>
    </edge>
    <edge id=":J4_4" function="internal">
        <lane id=":J4_4_0" index="0" speed="6.51" length="9.03" shape="10.40,304.80 7.95,305.15 6.20,306.20 5.15,307.95 4.80,310.40"/>
    </edge>
    <edge id=":J4_5" function="internal">
        <lane id=":J4_5_0" index="0" speed="13.89" length="20.80" shape="10.40,304.80 -10.40,304.80"/>
        <lane id=":J4_5_1" index="1" speed="13.89" length="20.80" shape="10.40,301.60 -10.40,301.60"/>
    </edge>
    <edge id=":J4_7" function="internal">
        <lane id=":J4_7_0" index="0" speed="9.26" length="5.01" shape="10.40,301.60 5.44,300.89"/>
    </edge>
    <edge id=":J4_17" function="internal">
        <lane id=":J4_17_0" index="0" speed="9.26" length="14.34" shape="5.44,300.89 5.15,300.85 1.40,298.60 -0.85,294.85 -1.60,289.60"/>
    </edge>
    <edge id=":J4_8" function="internal">
        <lane id=":J4_8_0" index="0" speed="6.51" length="9.03" shape="4.80,289.60 5.15,292.05 6.20,293.80 7.95,294.85 10.40,295.20"/>
    </edge>
    <edge id=":J4_9" function="internal">
        <lane id=":J4_9_0" index="0" speed="13.89" length="20.80" shape="4.80,289.60 4.80,310.40"/>
        <lane id=":J4_9_1" index="1" speed="13.89" length="20.80" shape="1.60,289.60 1.60,310.40"/>
    </edge>
    <edge id=":J4_11" function="internal">
        <lane id=":J4_11_0" index="0" speed="9.26" length="5.01" shape="1.60,289.60 0.89,294.56"/>
    </edge>
    <edge id=":J4_18" function="internal">
        <lane id=":J4_18_0" index="0" speed="9.26" length="14.34" shape="0.89,294.56 0.85,294.85 -1.40,298.60 -5.15,300.85 -10.40,301.60"/>
    </edge>
    <edge id=":J4_12" function="internal">
        <lane id=":J4_12_0" index="0" speed="6.51" length="9.03" shape="-10.40,295.20 -7.95,294.85 -6.20,293.80 -5.15,292.05 -4.80,289.60"/>
    </edge>
    <edge id=":J4_13" function="internal">
        <lane id=":J4_13_0" index="0" speed="13.89" length="20.80" shape="-10.40,295.20 10.40,295.20"/>
        <lane id=":J4_13_1" index="1" speed="13.89" length="20.80" shape="-10.40,298.40 10.40,298.40"/>
    </edge>
    <edge id=":J4_15" function="internal">
        <lane id=":J4_15_0" index="0" speed="9.26" length="5.01" shape="-10.40,298.40 -5.44,299.11"/>
    </edge>
    <edge id=":J4_19" function="internal">
        <lane id=":J4_19_0" index="0" speed="9.26" length="14.34" shape="-5.44,299.11 -5.15,299.15 -1.40,301.40 0.85,305.15 1.60,310.40"/>
    </edge>
    <edge id=":J5_0" function="internal">
        <lane id=":J5_0_0" index="0" speed="6.51" length="9.03" shape="-4.80,410.40 -5.15,407.95 -6.20,406.20 -7.95,405.15 -10.40,404.80"/>
    </edge>
    <edge id=":J5_1" function="internal">
        <lane id=":J5_1_0" index="0" speed="13.89" length="20.80" shape="-4.80,410.40 -4.80,389.60"/>
        <lane id=":J5_1_1" index="1" speed="13.89" length="20.80" shape="-1.60,410.40 -1.60,389.60"/>
    </edge>
    <edge id=":J5_3" function="internal">
        <lane id=":J5_3_0" index="0" speed="9.26" length="5.01" shape="-1.60,410.40 -0.89,405.44"/>
    </edge>
    <edge id=":J5_16" function="internal">
        <lane id=":J5_16_0" index="0" speed="9.26" length="14.34" shape="-0.89,405.44 -0.85,405.15 1.40,401.40 5.15,399.15 10.40,398.40"/>
    </edge>
    <edge id=":J5_4" function="internal">
        <lane id=":J5_4_0" index="0" speed="6.51" length="9.03" shape="10.40,404.80 7.95,405.15 6.20,406.20 5.15,407.95 4.80,410.40"/>
    </edge>
    <edge id=":J5_5" function="internal">
        <lane id=":J5_5_0" index="0" speed="13.89" length="20.80" shape="10.40,404.80 -10.40,404.80"/>
        <lane id=":J5_5_1" index="1" speed="13.89" length="20.80" shape="10.40,401.60 -10.40,401.60"/>
    </edge>
    <edge id=":J5_7" function="internal">
        <lane id=":J5_7_0" index="0" speed="9.26" length="5.01" shape="10.40,401.60 5.44,400.89"/>
    </edge>
    <edge id=":J5_17" function="internal">
        <lane id=":J5_17_0" index="0" speed="9.26" length="14.34" shape="5.44,400.89 5.15,400.85 1.40,398.60 -0.85,394.85 -1.60,389.60"/>
    </edge>
    <edge id=":J5_8" function="internal">
        <lane id=":J5_8_0" index="0" speed="6.51" length="9.03" shape="4.80,389.60 5.15,392.05 6.20,393.80 7.95,394.85 10.40,395.20"/>
    </edge>
    <edge id=":J5_9" function="internal">
        <lane id=":J5_9_0" index="0" speed="13.89" length="20.80" shape="4.80,389.60 4.80,410.40"/>
        <lane id=":J5_9_1" index="1" speed="13.89" length="20.80" shape="1.60,389.60 1.60,410.40"/>
    </edge>
    <edge id=":J5_11" function="internal">
        <lane id=":J5_11_0" index="0" speed="9.26" length="5.01" shape="1.60,389.60 0.89,394.56"/>
    </edge>
    <edge id=":J5_18" function="internal">
        <lane id=":J5_18_0" index="0" speed="9.26" length="14.34" shape="0.89,394.56 0.85,394.85 -1.40,398.60 -5.15,400.85 -10.40,401.60"/>
    </edge>
    <edge id=":J5_12" function="internal">
        <lane id=":J5_12_0" index="0" speed="6.51" length="9.03" shape="-10.40,395.20 -7.95,394.85 -6.20,393.80 -5.15,392.05 -4.80,389.60"/>
    </edge>
    <edge id=":J5_13" function="internal">
        <lane id=":J5_13_0" index="0" speed="13.89" length="20.80" shape="-10.40,395.20 10.40,395.20"/>
        <lane id=":J5_13_1" index="1" speed="13.89" length="20.80" shape="-10.40,398.40 10.40,398.40"/>
    </edge>
    <edge id=":J5_15" function="internal">
        <lane id=":J5_15_0" index="0" speed="9.26" length="5.01" shape="-10.40,398.40 -5.44,399.11"/>
    </edge>
    <edge id=":J5_19" function="internal">
        <lane id=":J5_19_0" index="0" speed="9.26" length="14.34" shape="-5.44,399.11 -5.15,399.15 -1.40,401.40 0.85,405.15 1.60,410.40"/>
    </edge>

    <edge id="-E1" from="J3" to="J2" priority="-1">
        <lane id="-E1_0" index="0" speed="13.89" length="89.60" shape="-4.80,189.60 -4.80,100.00"/>
        <lane id="-E1_1" index="1" speed="13.89" length="89.60" shape="-1.60,189.60 -1.60,100.00"/>
    </edge>
    <edge id="-E10" from="J3" to="J12" priority="-1">
        <lane id="-E10_0" index="0" speed="13.89" length="89.60" shape="-10.40,204.80 -100.00,204.80"/>
        <lane id="-E10_1" index="1" speed="13.89" length="89.60" shape="-10.40,201.60 -100.00,201.60"/>
    </edge>
    <edge id="-E2" from="J4" to="J3" priority="-1">
        <lane id="-E2_0" index="0" speed="13.89" length="79.20" shape="-4.80,289.60 -4.80,210.40"/>
        <lane id="-E2_1" index="1" speed="13.89" length="79.20" shape="-1.60,289.60 -1.60,210.40"/>
    </edge>
    <edge id="-E3" from="J5" to="J4" priority="-1">
        <lane id="-E3_0" index="0" speed="13.89" length="79.20" shape="-4.80,389.60 -4.80,310.40"/>
        <lane id="-E3_1" index="1" speed="13.89" length="79.20" shape="-1.60,389.60 -1.60,310.40"/>
    </edge>
    <edge id="-E4" from="J6" to="J5" priority="-1">
        <lane id="-E4_0" index="0" speed="13.89" length="89.60" shape="-4.80,500.00 -4.80,410.40"/>
        <lane id="-E4_1" index="1" speed="13.89" length="89.60" shape="-1.60,500.00 -1.60,410.40"/>
    </edge>
    <edge id="-E5" from="J7" to="J5" priority="-1">
        <lane id="-E5_0" index="0" speed="13.89" length="89.60" shape="100.00,404.80 10.40,404.80"/>
        <lane id="-E5_1" index="1" speed="13.89" length="89.60" shape="100.00,401.60 10.40,401.60"/>
    </edge>
    <edge id="-E6" from="J8" to="J5" priority="-1">
        <lane id="-E6_0" index="0" speed="13.89" length="89.60" shape="-100.00,395.20 -10.40,395.20"/>
        <lane id="-E6_1" index="1" speed="13.89" length="89.60" shape="-100.00,398.40 -10.40,398.40"/>
    </edge>
    <edge id="-E7" from="J9" to="J4" priority="-1">
        <lane id="-E7_0" index="0" speed="13.89" length="89.60" shape="100.00,304.80 10.40,304.80"/>
        <lane id="-E7_1" index="1" speed="13.89" length="89.60" shape="100.00,301.60 10.40,301.60"/>
    </edge>
    <edge id="-E8" from="J10" to="J4" priority="-1">
        <lane id="-E8_0" index="0" speed="13.89" length="89.60" shape="-100.00,295.20 -10.40,295.20"/>
        <lane id="-E8_1" index="1" speed="13.89" length="89.60" shape="-100.00,298.40 -10.40,298.40"/>
    </edge>
    <edge id="-E9" from="J11" to="J3" priority="-1">
        <lane id="-E9_0" index="0" speed="13.89" length="89.60" shape="100.00,204.80 10.40,204.80"/>
        <lane id="-E9_1" index="1" speed="13.89" length="89.60" shape="100.00,201.60 10.40,201.60"/>
    </edge>
    <edge id="E1" from="J2" to="J3" priority="-1">
        <lane id="E1_0" index="0" speed="13.89" length="89.60" shape="4.80,100.00 4.80,189.60"/>
        <lane id="E1_1" index="1" speed="13.89" length="89.60" shape="1.60,100.00 1.60,189.60"/>
    </edge>
    <edge id="E10" from="J12" to="J3" priority="-1">
        <lane id="E10_0" index="0" speed="13.89" length="89.60" shape="-100.00,195.20 -10.40,195.20"/>
        <lane id="E10_1" index="1" speed="13.89" length="89.60" shape="-100.00,198.40 -10.40,198.40"/>
    </edge>
    <edge id="E2" from="J3" to="J4" priority="-1">
        <lane id="E2_0" index="0" speed="13.89" length="79.20" shape="4.80,210.40 4.80,289.60"/>
        <lane id="E2_1" index="1" speed="13.89" length="79.20" shape="1.60,210.40 1.60,289.60"/>
    </edge>
    <edge id="E3" from="J4" to="J5" priority="-1">
        <lane id="E3_0" index="0" speed="13.89" length="79.20" shape="4.80,310.40 4.80,389.60"/>
        <lane id="E3_1" index="1" speed="13.89" length="79.20" shape="1.60,310.40 1.60,389.60"/>
    </edge>
    <edge id="E4" from="J5" to="J6" priority="-1">
        <lane id="E4_0" index="0" speed="13.89" length="89.60" shape="4.80,410.40 4.80,500.00"/>
        <lane id="E4_1" index="1" speed="13.89" length="89.60" shape="1.60,410.40 1.60,500.00"/>
    </edge>
    <edge id="E5" from="J5" to="J7" priority="-1">
        <lane id="E5_0" index="0" speed="13.89" length="89.60" shape="10.40,395.20 100.00,395.20"/>
        <lane id="E5_1" index="1" speed="13.89" length="89.60" shape="10.40,398.40 100.00,398.40"/>
    </edge>
    <edge id="E6" from="J5" to="J8" priority="-1">
        <lane id="E6_0" index="0" speed="13.89" length="89.60" shape="-10.40,404.80 -100.00,404.80"/>
        <lane id="E6_1" index="1" speed="13.89" length="89.60" shape="-10.40,401.60 -100.00,401.60"/>
    </edge>
    <edge id="E7" from="J4" to="J9" priority="-1">
        <lane id="E7_0" index="0" speed="13.89" length="89.60" shape="10.40,295.20 100.00,295.20"/>
        <lane id="E7_1" index="1" speed="13.89" length="89.60" shape="10.40,298.40 100.00,298.40"/>
    </edge>
    <edge id="E8" from="J4" to="J10" priority="-1">
        <lane id="E8_0" index="0" speed="13.89" length="89.60" shape="-10.40,304.80 -100.00,304.80"/>
        <lane id="E8_1" index="1" speed="13.89" length="89.60" shape="-10.40,301.60 -100.00,301.60"/>
    </edge>
    <edge id="E9" from="J3" to="J11" priority="-1">
        <lane id="E9_0" index="0" speed="13.89" length="89.60" shape="10.40,195.20 100.00,195.20"/>
        <lane id="E9_1" index="1" speed="13.89" length="89.60" shape="10.40,198.40 100.00,198.40"/>
    </edge>

    <tlLogic id="J3" type="static" programID="0" offset="0">
        <phase duration="42" state="GGGgrrrrGGGgrrrr"/>
        <phase duration="3"  state="yyyyrrrryyyyrrrr"/>
        <phase duration="42" state="rrrrGGGgrrrrGGGg"/>
        <phase duration="3"  state="rrrryyyyrrrryyyy"/>
    </tlLogic>
    <tlLogic id="J4" type="static" programID="0" offset="0">
        <phase duration="42" state="GGGgrrrrGGGgrrrr"/>
        <phase duration="3"  state="yyyyrrrryyyyrrrr"/>
        <phase duration="42" state="rrrrGGGgrrrrGGGg"/>
        <phase duration="3"  state="rrrryyyyrrrryyyy"/>
    </tlLogic>
    <tlLogic id="J5" type="static" programID="0" offset="0">
        <phase duration="42" state="GGGgrrrrGGGgrrrr"/>
        <phase duration="3"  state="yyyyrrrryyyyrrrr"/>
        <phase duration="42" state="rrrrGGGgrrrrGGGg"/>
        <phase duration="3"  state="rrrryyyyrrrryyyy"/>
    </tlLogic>

    <junction id="J10" type="dead_end" x="-100.00" y="300.00" incLanes="E8_0 E8_1" intLanes="" shape="-100.00,300.00 -100.00,306.40 -100.00,300.00"/>
    <junction id="J11" type="dead_end" x="100.00" y="200.00" incLanes="E9_0 E9_1" intLanes="" shape="100.00,200.00 100.00,193.60 100.00,200.00"/>
    <junction id="J12" type="dead_end" x="-100.00" y="200.00" incLanes="-E10_0 -E10_1" intLanes="" shape="-100.00,200.00 -100.00,206.40 -100.00,200.00"/>
    <junction id="J2" type="dead_end" x="0.00" y="100.00" incLanes="-E1_0 -E1_1" intLanes="" shape="0.00,100.00 -6.40,100.00 0.00,100.00"/>
    <junction id="J3" type="traffic_light" x="0.00" y="200.00" incLanes="-E2_0 -E2_1 -E9_0 -E9_1 E1_0 E1_1 E10_0 E10_1" intLanes=":J3_0_0 :J3_1_0 :J3_1_1 :J3_16_0 :J3_4_0 :J3_5_0 :J3_5_1 :J3_17_0 :J3_8_0 :J3_9_0 :J3_9_1 :J3_18_0 :J3_12_0 :J3_13_0 :J3_13_1 :J3_19_0" shape="-6.40,210.40 6.40,210.40 6.84,208.18 7.40,207.40 8.18,206.84 9.18,206.51 10.40,206.40 10.40,193.60 8.18,193.16 7.40,192.60 6.84,191.82 6.51,190.82 6.40,189.60 -6.40,189.60 -6.84,191.82 -7.40,192.60 -8.18,193.16 -9.18,193.49 -10.40,193.60 -10.40,206.40 -8.18,206.84 -7.40,207.40 -6.84,208.18 -6.51,209.18">
        <request index="0"  response="0000000000000000" foes="0000000001100000" cont="0"/>
        <request index="1"  response="1000000010000000" foes="1111100011100000" cont="0"/>
        <request index="2"  response="1000000010000000" foes="1111100011100000" cont="0"/>
        <request index="3"  response="1000011010000000" foes="1110011011100000" cont="1"/>
        <request index="4"  response="0000011000000000" foes="0000011000000000" cont="0"/>
        <request index="5"  response="0000111000001111" foes="1000111000001111" cont="0"/>
        <request index="6"  response="0000111000001111" foes="1000111000001111" cont="0"/>
        <request index="7"  response="0110111000001110" foes="0110111000001110" cont="1"/>
        <request index="8"  response="0000000000000000" foes="0110000000000000" cont="0"/>
        <request index="9"  response="1000000010000000" foes="1110000011111000" cont="0"/>
        <request index="10" response="1000000010000000" foes="1110000011111000" cont="0"/>
        <request index="11" response="1000000010000110" foes="1110000011100110" cont="1"/>
        <request index="12" response="0000000000000110" foes="0000000000000110" cont="0"/>
        <request index="13" response="0000111100001110" foes="0000111110001110" cont="0"/>
        <request index="14" response="0000111100001110" foes="0000111110001110" cont="0"/>
        <request index="15" response="0000111001101110" foes="0000111001101110" cont="1"/>
    </junction>
    <junction id="J4" type="traffic_light" x="0.00" y="300.00" incLanes="-E3_0 -E3_1 -E7_0 -E7_1 E2_0 E2_1 -E8_0 -E8_1" intLanes=":J4_0_0 :J4_1_0 :J4_1_1 :J4_16_0 :J4_4_0 :J4_5_0 :J4_5_1 :J4_17_0 :J4_8_0 :J4_9_0 :J4_9_1 :J4_18_0 :J4_12_0 :J4_13_0 :J4_13_1 :J4_19_0" shape="-6.40,310.40 6.40,310.40 6.84,308.18 7.40,307.40 8.18,306.84 9.18,306.51 10.40,306.40 10.40,293.60 8.18,293.16 7.40,292.60 6.84,291.82 6.51,290.82 6.40,289.60 -6.40,289.60 -6.84,291.82 -7.40,292.60 -8.18,293.16 -9.18,293.49 -10.40,293.60 -10.40,306.40 -8.18,306.84 -7.40,307.40 -6.84,308.18 -6.51,309.18">
        <request index="0"  response="0000000000000000" foes="0000000001100000" cont="0"/>
        <request index="1"  response="1000000010000000" foes="1111100011100000" cont="0"/>
        <request index="2"  response="1000000010000000" foes="1111100011100000" cont="0"/>
        <request index="3"  response="1000011010000000" foes="1110011011100000" cont="1"/>
        <request index="4"  response="0000011000000000" foes="0000011000000000" cont="0"/>
        <request index="5"  response="0000111000001111" foes="1000111000001111" cont="0"/>
        <request index="6"  response="0000111000001111" foes="1000111000001111" cont="0"/>
        <request index="7"  response="0110111000001110" foes="0110111000001110" cont="1"/>
        <request index="8"  response="0000000000000000" foes="0110000000000000" cont="0"/>
        <request index="9"  response="1000000010000000" foes="1110000011111000" cont="0"/>
        <request index="10" response="1000000010000000" foes="1110000011111000" cont="0"/>
        <request index="11" response="1000000010000110" foes="1110000011100110" cont="1"/>
        <request index="12" response="0000000000000110" foes="0000000000000110" cont="0"/>
        <request index="13" response="0000111100001110" foes="0000111110001110" cont="0"/>
        <request index="14" response="0000111100001110" foes="0000111110001110" cont="0"/>
        <request index="15" response="0000111001101110" foes="0000111001101110" cont="1"/>
    </junction>
    <junction id="J5" type="traffic_light" x="0.00" y="400.00" incLanes="-E4_0 -E4_1 -E5_0 -E5_1 E3_0 E3_1 -E6_0 -E6_1" intLanes=":J5_0_0 :J5_1_0 :J5_1_1 :J5_16_0 :J5_4_0 :J5_5_0 :J5_5_1 :J5_17_0 :J5_8_0 :J5_9_0 :J5_9_1 :J5_18_0 :J5_12_0 :J5_13_0 :J5_13_1 :J5_19_0" shape="-6.40,410.40 6.40,410.40 6.84,408.18 7.40,407.40 8.18,406.84 9.18,406.51 10.40,406.40 10.40,393.60 8.18,393.16 7.40,392.60 6.84,391.82 6.51,390.82 6.40,389.60 -6.40,389.60 -6.84,391.82 -7.40,392.60 -8.18,393.16 -9.18,393.49 -10.40,393.60 -10.40,406.40 -8.18,406.84 -7.40,407.40 -6.84,408.18 -6.51,409.18">
        <request index="0"  response="0000000000000000" foes="0000000001100000" cont="0"/>
        <request index="1"  response="1000000010000000" foes="1111100011100000" cont="0"/>
        <request index="2"  response="1000000010000000" foes="1111100011100000" cont="0"/>
        <request index="3"  response="1000011010000000" foes="1110011011100000" cont="1"/>
        <request index="4"  response="0000011000000000" foes="0000011000000000" cont="0"/>
        <request index="5"  response="0000111000001111" foes="1000111000001111" cont="0"/>
        <request index="6"  response="0000111000001111" foes="1000111000001111" cont="0"/>
        <request index="7"  response="0110111000001110" foes="0110111000001110" cont="1"/>
        <request index="8"  response="0000000000000000" foes="0110000000000000" cont="0"/>
        <request index="9"  response="1000000010000000" foes="1110000011111000" cont="0"/>
        <request index="10" response="1000000010000000" foes="1110000011111000" cont="0"/>
        <request index="11" response="1000000010000110" foes="1110000011100110" cont="1"/>
        <request index="12" response="0000000000000110" foes="0000000000000110" cont="0"/>
        <request index="13" response="0000111100001110" foes="0000111110001110" cont="0"/>
        <request index="14" response="0000111100001110" foes="0000111110001110" cont="0"/>
        <request index="15" response="0000111001101110" foes="0000111001101110" cont="1"/>
    </junction>
    <junction id="J6" type="dead_end" x="0.00" y="500.00" incLanes="E4_0 E4_1" intLanes="" shape="0.00,500.00 6.40,500.00 0.00,500.00"/>
    <junction id="J7" type="dead_end" x="100.00" y="400.00" incLanes="E5_0 E5_1" intLanes="" shape="100.00,400.00 100.00,393.60 100.00,400.00"/>
    <junction id="J8" type="dead_end" x="-100.00" y="400.00" incLanes="E6_0 E6_1" intLanes="" shape="-100.00,400.00 -100.00,406.40 -100.00,400.00"/>
    <junction id="J9" type="dead_end" x="100.00" y="300.00" incLanes="E7_0 E7_1" intLanes="" shape="100.00,300.00 100.00,293.60 100.00,300.00"/>

    <junction id=":J3_16_0" type="internal" x="-0.89" y="205.44" incLanes=":J3_3_0 E1_0 E1_1" intLanes=":J3_5_0 :J3_5_1 :J3_7_0 :J3_8_0 :J3_9_0 :J3_9_1 :J3_13_0 :J3_13_1 :J3_15_0"/>
    <junction id=":J3_17_0" type="internal" x="5.44" y="200.89" incLanes=":J3_7_0 E10_0 E10_1" intLanes=":J3_1_0 :J3_1_1 :J3_3_0 :J3_9_0 :J3_9_1 :J3_11_0 :J3_12_0 :J3_13_0 :J3_13_1"/>
    <junction id=":J3_18_0" type="internal" x="0.89" y="194.56" incLanes=":J3_11_0 -E2_0 -E2_1" intLanes=":J3_0_0 :J3_1_0 :J3_1_1 :J3_5_0 :J3_5_1 :J3_7_0 :J3_13_0 :J3_13_1 :J3_15_0"/>
    <junction id=":J3_19_0" type="internal" x="-5.44" y="199.11" incLanes=":J3_15_0 -E9_0 -E9_1" intLanes=":J3_1_0 :J3_1_1 :J3_3_0 :J3_4_0 :J3_5_0 :J3_5_1 :J3_9_0 :J3_9_1 :J3_11_0"/>
    <junction id=":J4_16_0" type="internal" x="-0.89" y="305.44" incLanes=":J4_3_0 E2_0 E2_1" intLanes=":J4_5_0 :J4_5_1 :J4_7_0 :J4_8_0 :J4_9_0 :J4_9_1 :J4_13_0 :J4_13_1 :J4_15_0"/>
    <junction id=":J4_17_0" type="internal" x="5.44" y="300.89" incLanes=":J4_7_0 -E8_0 -E8_1" intLanes=":J4_1_0 :J4_1_1 :J4_3_0 :J4_9_0 :J4_9_1 :J4_11_0 :J4_12_0 :J4_13_0 :J4_13_1"/>
    <junction id=":J4_18_0" type="internal" x="0.89" y="294.56" incLanes=":J4_11_0 -E3_0 -E3_1" intLanes=":J4_0_0 :J4_1_0 :J4_1_1 :J4_5_0 :J4_5_1 :J4_7_0 :J4_13_0 :J4_13_1 :J4_15_0"/>
    <junction id=":J4_19_0" type="internal" x="-5.44" y="299.11" incLanes=":J4_15_0 -E7_0 -E7_1" intLanes=":J4_1_0 :J4_1_1 :J4_3_0 :J4_4_0 :J4_5_0 :J4_5_1 :J4_9_0 :J4_9_1 :J4_11_0"/>
    <junction id=":J5_16_0" type="internal" x="-0.89" y="405.44" incLanes=":J5_3_0 E3_0 E3_1" intLanes=":J5_5_0 :J5_5_1 :J5_7_0 :J5_8_0 :J5_9_0 :J5_9_1 :J5_13_0 :J5_13_1 :J5_15_0"/>
    <junction id=":J5_17_0" type="internal" x="5.44" y="400.89" incLanes=":J5_7_0 -E6_0 -E6_1" intLanes=":J5_1_0 :J5_1_1 :J5_3_0 :J5_9_0 :J5_9_1 :J5_11_0 :J5_12_0 :J5_13_0 :J5_13_1"/>
    <junction id=":J5_18_0" type="internal" x="0.89" y="394.56" incLanes=":J5_11_0 -E4_0 -E4_1" intLanes=":J5_0_0 :J5_1_0 :J5_1_1 :J5_5_0 :J5_5_1 :J5_7_0 :J5_13_0 :J5_13_1 :J5_15_0"/>
    <junction id=":J5_19_0" type="internal" x="-5.44" y="399.11" incLanes=":J5_15_0 -E5_0 -E5_1" intLanes=":J5_1_0 :J5_1_1 :J5_3_0 :J5_4_0 :J5_5_0 :J5_5_1 :J5_9_0 :J5_9_1 :J5_11_0"/>

    <connection from="-E2" to="-E10" fromLane="0" toLane="0" via=":J3_0_0" tl="J3" linkIndex="0" dir="r" state="O"/>
    <connection from="-E2" to="-E1" fromLane="0" toLane="0" via=":J3_1_0" tl="J3" linkIndex="1" dir="s" state="O"/>
    <connection from="-E2" to="-E1" fromLane="1" toLane="1" via=":J3_1_1" tl="J3" linkIndex="2" dir="s" state="O"/>
    <connection from="-E2" to="E9" fromLane="1" toLane="1" via=":J3_3_0" tl="J3" linkIndex="3" dir="l" state="o"/>
    <connection from="-E3" to="E8" fromLane="0" toLane="0" via=":J4_0_0" tl="J4" linkIndex="0" dir="r" state="O"/>
    <connection from="-E3" to="-E2" fromLane="0" toLane="0" via=":J4_1_0" tl="J4" linkIndex="1" dir="s" state="O"/>
    <connection from="-E3" to="-E2" fromLane="1" toLane="1" via=":J4_1_1" tl="J4" linkIndex="2" dir="s" state="O"/>
    <connection from="-E3" to="E7" fromLane="1" toLane="1" via=":J4_3_0" tl="J4" linkIndex="3" dir="l" state="o"/>
    <connection from="-E4" to="E6" fromLane="0" toLane="0" via=":J5_0_0" tl="J5" linkIndex="0" dir="r" state="O"/>
    <connection from="-E4" to="-E3" fromLane="0" toLane="0" via=":J5_1_0" tl="J5" linkIndex="1" dir="s" state="O"/>
    <connection from="-E4" to="-E3" fromLane="1" toLane="1" via=":J5_1_1" tl="J5" linkIndex="2" dir="s" state="O"/>
    <connection from="-E4" to="E5" fromLane="1" toLane="1" via=":J5_3_0" tl="J5" linkIndex="3" dir="l" state="o"/>
    <connection from="-E5" to="E4" fromLane="0" toLane="0" via=":J5_4_0" tl="J5" linkIndex="4" dir="r" state="o"/>
    <connection from="-E5" to="E6" fromLane="0" toLane="0" via=":J5_5_0" tl="J5" linkIndex="5" dir="s" state="o"/>
    <connection from="-E5" to="E6" fromLane="1" toLane="1" via=":J5_5_1" tl="J5" linkIndex="6" dir="s" state="o"/>
    <connection from="-E5" to="-E3" fromLane="1" toLane="1" via=":J5_7_0" tl="J5" linkIndex="7" dir="l" state="o"/>
    <connection from="-E6" to="-E3" fromLane="0" toLane="0" via=":J5_12_0" tl="J5" linkIndex="12" dir="r" state="o"/>
    <connection from="-E6" to="E5" fromLane="0" toLane="0" via=":J5_13_0" tl="J5" linkIndex="13" dir="s" state="o"/>
    <connection from="-E6" to="E5" fromLane="1" toLane="1" via=":J5_13_1" tl="J5" linkIndex="14" dir="s" state="o"/>
    <connection from="-E6" to="E4" fromLane="1" toLane="1" via=":J5_15_0" tl="J5" linkIndex="15" dir="l" state="o"/>
    <connection from="-E7" to="E3" fromLane="0" toLane="0" via=":J4_4_0" tl="J4" linkIndex="4" dir="r" state="o"/>
    <connection from="-E7" to="E8" fromLane="0" toLane="0" via=":J4_5_0" tl="J4" linkIndex="5" dir="s" state="o"/>
    <connection from="-E7" to="E8" fromLane="1" toLane="1" via=":J4_5_1" tl="J4" linkIndex="6" dir="s" state="o"/>
    <connection from="-E7" to="-E2" fromLane="1" toLane="1" via=":J4_7_0" tl="J4" linkIndex="7" dir="l" state="o"/>
    <connection from="-E8" to="-E2" fromLane="0" toLane="0" via=":J4_12_0" tl="J4" linkIndex="12" dir="r" state="o"/>
    <connection from="-E8" to="E7" fromLane="0" toLane="0" via=":J4_13_0" tl="J4" linkIndex="13" dir="s" state="o"/>
    <connection from="-E8" to="E7" fromLane="1" toLane="1" via=":J4_13_1" tl="J4" linkIndex="14" dir="s" state="o"/>
    <connection from="-E8" to="E3" fromLane="1" toLane="1" via=":J4_15_0" tl="J4" linkIndex="15" dir="l" state="o"/>
    <connection from="-E9" to="E2" fromLane="0" toLane="0" via=":J3_4_0" tl="J3" linkIndex="4" dir="r" state="o"/>
    <connection from="-E9" to="-E10" fromLane="0" toLane="0" via=":J3_5_0" tl="J3" linkIndex="5" dir="s" state="o"/>