<?xml version="1.0" encoding="UTF-8"?>

<!-- generated on 2022-11-07 11:30:07.970977 by osmWebWizard.py v1_14_1+0000-f654d7b963e
<configuration>
    <allow-fringe.min-length value="1000.0"/>
    <end value="3600"/>
    <fringe-factor value="5.0"/>
    <fringe-start-attributes value="departSpeed=&quot;max&quot;"/>
    <lanes value="True"/>
    <min-distance value="300.0"/>
    <net-file value="C:\Users\difra\OneDrive\Documents\Pitt2022\CS1980\team-project\OSM_files\2022-11-07-11-29-56\osm.net.xml"/>
    <period value="2.3238107956348597"/>
    <route-file value="C:\Users\difra\OneDrive\Documents\Pitt2022\CS1980\team-project\OSM_files\2022-11-07-11-29-56\osm.passenger.rou.xml"/>
    <trip-attributes value="departLane=&quot;best&quot;"/>
    <output-trip-file value="C:\Users\difra\OneDrive\Documents\Pitt2022\CS1980\team-project\OSM_files\2022-11-07-11-29-56\osm.passenger.trips.xml"/>
    <prefix value="veh"/>
    <validate value="True"/>
    <vehicle-class value="passenger"/>
</configuration>
-->

<!-- generated on 2022-11-07 11:30:07 by Eclipse SUMO duarouter Version 1.14.1
<configuration xmlns:xsi="http://www.w3.org/2001/XMLSchema-instance" xsi:noNamespaceSchemaLocation="http://sumo.dlr.de/xsd/duarouterConfiguration.xsd">

    <input>
        <net-file value="C:\Users\difra\OneDrive\Documents\Pitt2022\CS1980\team-project\OSM_files\2022-11-07-11-29-56\osm.net.xml"/>
        <route-files value="C:\Users\difra\OneDrive\Documents\Pitt2022\CS1980\team-project\OSM_files\2022-11-07-11-29-56\osm.passenger.trips.xml"/>
    </input>

    <output>
        <output-file value="C:\Users\difra\OneDrive\Documents\Pitt2022\CS1980\team-project\OSM_files\2022-11-07-11-29-56\osm.passenger.trips.xml.tmp"/>
        <alternatives-output value="NUL"/>
        <write-trips value="true"/>
    </output>

    <time>
        <begin value="0"/>
        <end value="3600"/>
    </time>

    <report>
        <no-warnings value="true"/>
        <ignore-errors value="true"/>
        <no-step-log value="true"/>
    </report>

</configuration>
-->

<routes xmlns:xsi="http://www.w3.org/2001/XMLSchema-instance" xsi:noNamespaceSchemaLocation="http://sumo.dlr.de/xsd/routes_file.xsd">
    <vType id="veh_passenger" vClass="passenger"/>
    <trip id="veh0" type="veh_passenger" depart="0.00" departLane="best" from="11834136" to="-109348819"/>
    <trip id="veh1" type="veh_passenger" depart="2.32" departLane="best" from="26321021#0" to="24771086#1"/>
    <trip id="veh2" type="veh_passenger" depart="4.65" departLane="best" from="344435198#1" to="-11747482"/>
    <trip id="veh3" type="veh_passenger" depart="6.97" departLane="best" from="-62343617#1" to="-109355428#0"/>
    <trip id="veh4" type="veh_passenger" depart="9.30" departLane="best" departSpeed="max" from="-11961801" to="11730622#0"/>
    <trip id="veh5" type="veh_passenger" depart="11.62" departLane="best" from="-1091377093" to="-24907869#2"/>
    <trip id="veh6" type="veh_passenger" depart="13.94" departLane="best" from="-132161471#2" to="11826990#0"/>
    <trip id="veh7" type="veh_passenger" depart="16.27" departLane="best" from="294294299#4" to="-1022429024#5"/>
    <trip id="veh8" type="veh_passenger" depart="18.59" departLane="best" from="294294299#3" to="25829909#0"/>
    <trip id="veh9" type="veh_passenger" depart="20.91" departLane="best" from="-302191266#1" to="-11949221#0"/>
    <trip id="veh10" type="veh_passenger" depart="23.24" departLane="best" from="625866890" to="-54500407#1"/>
    <trip id="veh11" type="veh_passenger" depart="25.56" departLane="best" departSpeed="max" from="-11730622#12" to="-11756576#2"/>
    <trip id="veh12" type="veh_passenger" depart="27.89" departLane="best" from="302256387#2" to="11834237#1"/>
    <trip id="veh13" type="veh_passenger" depart="30.21" departLane="best" from="294294299#3" to="292835612"/>
    <trip id="veh14" type="veh_passenger" depart="32.53" departLane="best" from="11712186" to="843376165"/>
    <trip id="veh15" type="veh_passenger" depart="34.86" departLane="best" departSpeed="max" from="-335532205" to="11755268#0"/>
    <trip id="veh16" type="veh_passenger" depart="37.18" departLane="best" departSpeed="max" from="295777411" to="11853257"/>
    <trip id="veh17" type="veh_passenger" depart="39.50" departLane="best" departSpeed="max" from="313647228#0" to="11824441#1"/>
    <trip id="veh18" type="veh_passenger" depart="41.83" departLane="best" from="-24771086#14" to="-313647228#0"/>
    <trip id="veh19" type="veh_passenger" depart="44.15" departLane="best" from="-11722219#1" to="-293019678#6"/>
    <trip id="veh20" type="veh_passenger" depart="46.48" departLane="best" departSpeed="max" from="-11732390" to="-30677815#0"/>
    <trip id="veh21" type="veh_passenger" depart="48.80" departLane="best" departSpeed="max" from="11831739#0" to="-625866869#0"/>
    <trip id="veh22" type="veh_passenger" depart="51.12" departLane="best" departSpeed="max" from="-331173870#3" to="-267173080#0"/>
    <trip id="veh23" type="veh_passenger" depart="53.45" departLane="best" departSpeed="max" from="-27630527" to="625866875#1"/>
    <trip id="veh24" type="veh_passenger" depart="55.77" departLane="best" departSpeed="max" from="-11837578" to="292835612"/>
    <trip id="veh25" type="veh_passenger" depart="58.10" departLane="best" departSpeed="max" from="-11833715" to="-756749111"/>
    <trip id="veh26" type="veh_passenger" depart="60.42" departLane="best" from="913301010" to="11949370"/>
    <trip id="veh27" type="veh_passenger" depart="62.74" departLane="best" from="11734052#0" to="24867565"/>
    <trip id="veh28" type="veh_passenger" depart="65.07" departLane="best" from="302191266#0" to="293149229#4"/>
    <trip id="veh29" type="veh_passenger" depart="67.39" departLane="best" from="-24771086#4" to="-1097809035#1"/>
    <trip id="veh30" type="veh_passenger" depart="69.71" departLane="best" departSpeed="max" from="-294283125#3" to="-302191265#0"/>
    <trip id="veh31" type="veh_passenger" depart="72.04" departLane="best" departSpeed="max" from="-11955751" to="625866877#1"/>
    <trip id="veh32" type="veh_passenger" depart="74.36" departLane="best" from="320948875#5" to="-335532206"/>
    <trip id="veh33" type="veh_passenger" depart="76.69" departLane="best" from="11839510#0" to="-926031003"/>
    <trip id="veh34" type="veh_passenger" depart="79.01" departLane="best" departSpeed="max" from="55170192#0" to="11690395"/>
    <trip id="veh35" type="veh_passenger" depart="81.33" departLane="best" departSpeed="max" from="-27630527" to="-294921088#7"/>
    <trip id="veh36" type="veh_passenger" depart="83.66" departLane="best" departSpeed="max" from="11734345#0" to="-296429762"/>
    <trip id="veh37" type="veh_passenger" depart="85.98" departLane="best" from="11754703" to="54964356#2"/>
    <trip id="veh38" type="veh_passenger" depart="88.30" departLane="best" from="-359652179#1" to="-28727096#0"/>
    <trip id="veh39" type="veh_passenger" depart="90.63" departLane="best" from="932572338#0" to="11730622#11"/>
    <trip id="veh40" type="veh_passenger" depart="92.95" departLane="best" departSpeed="max" from="-11730622#12" to="-11694786"/>
    <trip id="veh41" type="veh_passenger" depart="95.28" departLane="best" departSpeed="max" from="-11736605" to="11947729"/>
    <trip id="veh42" type="veh_passenger" depart="97.60" departLane="best" departSpeed="max" from="294294299#0" to="1022429033#3"/>
    <trip id="veh43" type="veh_passenger" depart="99.92" departLane="best" departSpeed="max" from="-11690842" to="-843376164#1"/>
    <trip id="veh44" type="veh_passenger" depart="102.25" departLane="best" from="926031004#0" to="11736605"/>
    <trip id="veh45" type="veh_passenger" depart="104.57" departLane="best" from="780956209#3" to="335532205"/>
    <trip id="veh46" type="veh_passenger" depart="106.90" departLane="best" from="-1022429031#0" to="28491261#7"/>
    <trip id="veh47" type="veh_passenger" depart="109.22" departLane="best" from="11955884#0" to="11737884#3"/>
    <trip id="veh48" type="veh_passenger" depart="111.54" departLane="best" departSpeed="max" from="-27630527" to="11949920"/>
    <trip id="veh49" type="veh_passenger" depart="113.87" departLane="best" from="-11738117" to="109349950#3"/>
    <trip id="veh50" type="veh_passenger" depart="116.19" departLane="best" from="-843376166#1" to="625866891#2"/>
    <trip id="veh51" type="veh_passenger" depart="118.51" departLane="best" from="320948875#3" to="-296429762"/>
    <trip id="veh52" type="veh_passenger" depart="120.84" departLane="best" departSpeed="max" from="55170192#0" to="335842214#1"/>
    <trip id="veh53" type="veh_passenger" depart="123.16" departLane="best" departSpeed="max" from="-293019678#12" to="11949221#1"/>
    <trip id="veh54" type="veh_passenger" depart="125.49" departLane="best" departSpeed="max" from="11820606" to="-11947670#1"/>
    <trip id="veh55" type="veh_passenger" depart="127.81" departLane="best" from="293019678#5" to="11737884#3"/>
    <trip id="veh56" type="veh_passenger" depart="130.13" departLane="best" from="293149229#3" to="11736605"/>
    <trip id="veh57" type="veh_passenger" depart="132.46" departLane="best" from="-1022073976" to="-348722697"/>
    <trip id="veh58" type="veh_passenger" depart="134.78" departLane="best" departSpeed="max" from="-1033988120" to="625866869#1"/>
    <trip id="veh59" type="veh_passenger" depart="137.10" departLane="best" from="320948882#0" to="30677815#3"/>
    <trip id="veh60" type="veh_passenger" depart="139.43" departLane="best" from="-293019678#6" to="-11708004"/>
    <trip id="veh61" type="veh_passenger" depart="141.75" departLane="best" from="320948881#2" to="625866891#0"/>
    <trip id="veh62" type="veh_passenger" depart="144.08" departLane="best" departSpeed="max" from="-11729757" to="11719564#0"/>
    <trip id="veh63" type="veh_passenger" depart="146.40" departLane="best" from="-11694981#11" to="293019680#0"/>
    <trip id="veh64" type="veh_passenger" depart="148.72" departLane="best" from="293019680#0" to="-11826990#3"/>
    <trip id="veh66" type="veh_passenger" depart="153.37" departLane="best" departSpeed="max" from="-27630527" to="335842214#1"/>
    <trip id="veh68" type="veh_passenger" depart="158.02" departLane="best" from="11719564#0" to="292835612"/>
    <trip id="veh69" type="veh_passenger" depart="160.34" departLane="best" departSpeed="max" from="-11949920" to="-331173871#1"/>
    <trip id="veh70" type="veh_passenger" depart="162.67" departLane="best" from="926031004#0" to="11952362#0"/>
    <trip id="veh71" type="veh_passenger" depart="164.99" departLane="best" from="-625866872" to="11732390"/>
    <trip id="veh72" type="veh_passenger" depart="167.31" departLane="best" from="-11750475" to="-292851770#0"/>
    <trip id="veh73" type="veh_passenger" depart="169.64" departLane="best" from="-302191262#3" to="11826021#1"/>
    <trip id="veh74" type="veh_passenger" depart="171.96" departLane="best" from="-24771086#8" to="-28727096#0"/>
    <trip id="veh75" type="veh_passenger" depart="174.29" departLane="best" from="-11695329#1" to="11948124"/>
    <trip id="veh76" type="veh_passenger" depart="176.61" departLane="best" from="-24771086#4" to="625361998#0"/>
    <trip id="veh77" type="veh_passenger" depart="178.93" departLane="best" from="313330279#0" to="-11722219#2"/>
    <trip id="veh78" type="veh_passenger" depart="181.26" departLane="best" departSpeed="max" from="-24867565" to="11962498#3"/>
    <trip id="veh79" type="veh_passenger" depart="183.58" departLane="best" from="-11956345" to="-11831052#2"/>
    <trip id="veh80" type="veh_passenger" depart="185.90" departLane="best" from="625479007#2" to="11819744"/>
    <trip id="veh81" type="veh_passenger" depart="188.23" departLane="best" from="-966308109#3" to="294294299#2"/>
    <trip id="veh82" type="veh_passenger" depart="190.55" departLane="best" from="-11731298#0" to="1093469205"/>
    <trip id="veh83" type="veh_passenger" depart="192.88" departLane="best" from="-625361998#0" to="11690842"/>
    <trip id="veh84" type="veh_passenger" depart="195.20" departLane="best" from="24991196#0" to="237385955#2"/>
    <trip id="veh85" type="veh_passenger" depart="197.52" departLane="best" from="911068792" to="-11805275#4"/>
    <trip id="veh86" type="veh_passenger" depart="199.85" departLane="best" from="-372290092#2" to="-54964356#1"/>
    <trip id="veh87" type="veh_passenger" depart="202.17" departLane="best" departSpeed="max" from="313647228#0" to="-294921094#2"/>
    <trip id="veh88" type="veh_passenger" depart="204.50" departLane="best" departSpeed="max" from="-11948124" to="11680951"/>
    <trip id="veh89" type="veh_passenger" depart="206.82" departLane="best" from="-62343617#1" to="-30677815#0"/>
    <trip id="veh90" type="veh_passenger" depart="209.14" departLane="best" departSpeed="max" from="-25655759#1" to="625479008#0"/>
    <trip id="veh91" type="veh_passenger" depart="211.47" departLane="best" departSpeed="max" from="-625866875#1" to="335532206"/>
    <trip id="veh92" type="veh_passenger" depart="213.79" departLane="best" from="11729090#1" to="-11695329#0"/>
    <trip id="veh93" type="veh_passenger" depart="216.11" departLane="best" from="987148539#0" to="315436625#0"/>
    <trip id="veh94" type="veh_passenger" depart="218.44" departLane="best" from="780956209#0" to="625866866#1"/>
    <trip id="veh95" type="veh_passenger" depart="220.76" departLane="best" from="302256387#6" to="-11956342#2"/>
    <trip id="veh96" type="veh_passenger" depart="223.09" departLane="best" from="1022429031#0" to="-28491261#0"/>
    <trip id="veh98" type="veh_passenger" depart="227.73" departLane="best" departSpeed="max" from="-335532205" to="911068789#0"/>
    <trip id="veh99" type="veh_passenger" depart="230.06" departLane="best" departSpeed="max" from="-27630527" to="294294299#2"/>
    <trip id="veh100" type="veh_passenger" depart="232.38" departLane="best" from="-868924670" to="1023470061#0"/>
    <trip id="veh101" type="veh_passenger" depart="234.70" departLane="best" from="625866890" to="926031004#0"/>
    <trip id="veh102" type="veh_passenger" depart="237.03" departLane="best" from="11731298#1" to="28491261#1"/>
    <trip id="veh103" type="veh_passenger" depart="239.35" departLane="best" from="-11826990#2" to="-313647228#3"/>
    <trip id="veh105" type="veh_passenger" depart="244.00" departLane="best" departSpeed="max" from="11720646" to="293019678#0"/>
    <trip id="veh106" type="veh_passenger" depart="246.32" departLane="best" from="109355428#1" to="331173870#2"/>
    <trip id="veh107" type="veh_passenger" depart="248.65" departLane="best" from="-11826992" to="625866892#0"/>
    <trip id="veh108" type="veh_passenger" depart="250.97" departLane="best" from="-11722219#1" to="-24771086#14"/>
    <trip id="veh109" type="veh_passenger" depart="253.30" departLane="best" from="11806724#0" to="24763269#0"/>
    <trip id="veh110" type="veh_passenger" depart="255.62" departLane="best" departSpeed="max" from="-24867565" to="-11824441#0"/>
    <trip id="veh111" type="veh_passenger" depart="257.94" departLane="best" from="335842213" to="-294921088#3"/>
    <trip id="veh112" type="veh_passenger" depart="260.27" departLane="best" from="11806720#1" to="11853257"/>
    <trip id="veh113" type="veh_passenger" depart="262.59" departLane="best" from="-612984138#1" to="11824942"/>
    <trip id="veh114" type="veh_passenger" depart="264.91" departLane="best" departSpeed="max" from="11695329#0" to="625866873#0"/>
    <trip id="veh115" type="veh_passenger" depart="267.24" departLane="best" departSpeed="max" from="-11950321#2" to="27630527"/>
    <trip id="veh116" type="veh_passenger" depart="269.56" departLane="best" from="-24867570" to="-926031003"/>
    <trip id="veh117" type="veh_passenger" depart="271.89" departLane="best" departSpeed="max" from="11949221#0" to="-320455187#3"/>
    <trip id="veh118" type="veh_passenger" depart="274.21" departLane="best" departSpeed="max" from="-294283125#3" to="293019678#7"/>
    <trip id="veh119" type="veh_passenger" depart="276.53" departLane="best" from="-11697531#2" to="11690395"/>
    <trip id="veh120" type="veh_passenger" depart="278.86" departLane="best" from="966308089" to="926031004#0"/>
    <trip id="veh121" type="veh_passenger" depart="281.18" departLane="best" from="-11698857" to="-28491261#0"/>
    <trip id="veh122" type="veh_passenger" depart="283.50" departLane="best" departSpeed="max" from="-27630527" to="625866872"/>
    <trip id="veh123" type="veh_passenger" depart="285.83" departLane="best" from="331173871#1" to="355812455#0"/>
    <trip id="veh124" type="veh_passenger" depart="288.15" departLane="best" departSpeed="max" from="-331173870#3" to="-11949221#0"/>
    <trip id="veh125" type="veh_passenger" depart="290.48" departLane="best" from="295777413#0" to="264432817#0"/>
    <trip id="veh126" type="veh_passenger" depart="292.80" departLane="best" departSpeed="max" from="11820606" to="911068791#2"/>
    <trip id="veh127" type="veh_passenger" depart="295.12" departLane="best" from="11837682#2" to="-1022429027"/>
    <trip id="veh128" type="veh_passenger" depart="297.45" departLane="best" from="294294324#2" to="-320455187#3"/>
    <trip id="veh129" type="veh_passenger" depart="299.77" departLane="best" departSpeed="max" from="11943781" to="625866875#1"/>
    <trip id="veh130" type="veh_passenger" depart="302.10" departLane="best" from="-11815607#0" to="-11820606"/>
    <trip id="veh131" type="veh_passenger" depart="304.42" departLane="best" from="-11735802#2" to="11755338"/>
    <trip id="veh132" type="veh_passenger" depart="306.74" departLane="best" from="-28727096#0" to="11835359#0"/>
    <trip id="veh133" type="veh_passenger" depart="309.07" departLane="best" from="24850351#0" to="-255367652#2"/>
    <trip id="veh134" type="veh_passenger" depart="311.39" departLane="best" departSpeed="max" from="11831739#0" to="-302191262#1"/>
    <trip id="veh135" type="veh_passenger" depart="313.71" departLane="best" from="1022429033#3" to="625361998#0"/>
    <trip id="veh136" type="veh_passenger" depart="316.04" departLane="best" from="302256386#0" to="-11753371"/>
    <trip id="veh137" type="veh_passenger" depart="318.36" departLane="best" from="-625361998#0" to="-302256388#1"/>
    <trip id="veh138" type="veh_passenger" depart="320.69" departLane="best" departSpeed="max" from="-1022073987" to="293149229#2"/>
    <trip id="veh139" type="veh_passenger" depart="323.01" departLane="best" from="11833234" to="-295777416#2"/>
    <trip id="veh140" type="veh_passenger" depart="325.33" departLane="best" from="267173080#2" to="11755268#0"/>
    <trip id="veh141" type="veh_passenger" depart="327.66" departLane="best" from="-625361998#5" to="-1022429029"/>
    <trip id="veh143" type="veh_passenger" depart="332.30" departLane="best" from="494284371#0" to="11742233#0"/>
    <trip id="veh144" type="veh_passenger" depart="334.63" departLane="best" from="295777415#0" to="11824843#0"/>
    <trip id="veh145" type="veh_passenger" depart="336.95" departLane="best" departSpeed="max" from="-11824942" to="-11826990#2"/>
    <trip id="veh146" type="veh_passenger" depart="339.28" departLane="best" from="-293019678#6" to="55170192#1"/>
    <trip id="veh147" type="veh_passenger" depart="341.60" departLane="best" departSpeed="max" from="294294299#0" to="335532205"/>
    <trip id="veh148" type="veh_passenger" depart="343.92" departLane="best" from="359652179#0" to="-267173080#1"/>
    <trip id="veh149" type="veh_passenger" depart="346.25" departLane="best" departSpeed="max" from="-25655759#1" to="-11806720#1"/>
    <trip id="veh150" type="veh_passenger" depart="348.57" departLane="best" from="293149229#3" to="372290092#0"/>
    <trip id="veh151" type="veh_passenger" depart="350.90" departLane="best" departSpeed="max" from="-465717534" to="11853257"/>
    <trip id="veh152" type="veh_passenger" depart="353.22" departLane="best" from="-11826990#2" to="625866869#1"/>
    <trip id="veh153" type="veh_passenger" depart="355.54" departLane="best" departSpeed="max" from="313647228#0" to="888078548"/>
    <trip id="veh154" type="veh_passenger" depart="357.87" departLane="best" from="294294299#5" to="359652179#0"/>
    <trip id="veh155" type="veh_passenger" depart="360.19" departLane="best" from="-294921218#2" to="625866869#1"/>
    <trip id="veh156" type="veh_passenger" depart="362.51" departLane="best" departSpeed="max" from="294294299#0" to="335532207#0"/>
    <trip id="veh157" type="veh_passenger" depart="364.84" departLane="best" from="294294299#5" to="-302191265#0"/>
    <trip id="veh158" type="veh_passenger" depart="367.16" departLane="best" departSpeed="max" from="294283124#0" to="-11809341#3"/>
    <trip id="veh159" type="veh_passenger" depart="369.49" departLane="best" departSpeed="max" from="320948875#0" to="335532205"/>
    <trip id="veh160" type="veh_passenger" depart="371.81" departLane="best" from="-132161471#4" to="302191266#0"/>
    <trip id="veh161" type="veh_passenger" depart="374.13" departLane="best" from="-910977756#1" to="-320948875#2"/>
    <trip id="veh162" type="veh_passenger" depart="376.46" departLane="best" departSpeed="max" from="294294299#0" to="-292851770#12"/>
    <trip id="veh163" type="veh_passenger" depart="378.78" departLane="best" from="-1057194119#12" to="-24850629"/>
    <trip id="veh164" type="veh_passenger" depart="381.10" departLane="best" from="-294921138#2" to="335532207#0"/>
    <trip id="veh165" type="veh_passenger" depart="383.43" departLane="best" from="714429624#0" to="-30677815#0"/>
    <trip id="veh166" type="veh_passenger" depart="385.75" departLane="best" from="11834237#0" to="-932572338#1"/>
    <trip id="veh167" type="veh_passenger" depart="388.08" departLane="best" from="910977765#0" to="11737884#1"/>
    <trip id="veh168" type="veh_passenger" depart="390.40" departLane="best" from="625479007#4" to="-11820606"/>
    <trip id="veh169" type="veh_passenger" depart="392.72" departLane="best" from="780956209#3" to="-132161471#0"/>
    <trip id="veh170" type="veh_passenger" depart="395.05" departLane="best" departSpeed="max" from="696036958" to="-302191262#8"/>
    <trip id="veh171" type="veh_passenger" depart="397.37" departLane="best" departSpeed="max" from="-11736605" to="109349950#3"/>
    <trip id="veh172" type="veh_passenger" depart="399.70" departLane="best" from="24931539" to="-331173873#6"/>
    <trip id="veh173" type="veh_passenger" depart="402.02" departLane="best" departSpeed="max" from="11818917" to="11730622#5"/>
    <trip id="veh174" type="veh_passenger" depart="404.34" departLane="best" from="-335532207#3" to="11824441#1"/>
    <trip id="veh175" type="veh_passenger" depart="406.67" departLane="best" departSpeed="max" from="-264432817#1" to="27592085"/>
    <trip id="veh176" type="veh_passenger" depart="408.99" departLane="best" departSpeed="max" from="-1022073987" to="625851681#0"/>
    <trip id="veh177" type="veh_passenger" depart="411.31" departLane="best" from="11713940#0" to="28491261#2"/>
    <trip id="veh178" type="veh_passenger" depart="413.64" departLane="best" from="27630556" to="132161471#3"/>
    <trip id="veh179" type="veh_passenger" depart="415.96" departLane="best" from="-320948875#5" to="-11722219#1"/>
    <trip id="veh180" type="veh_passenger" depart="418.29" departLane="best" departSpeed="max" from="11943781" to="-372290092#0"/>
    <trip id="veh181" type="veh_passenger" depart="420.61" departLane="best" departSpeed="max" from="-294283125#3" to="331173858"/>
    <trip id="veh182" type="veh_passenger" depart="422.93" departLane="best" departSpeed="max" from="24850629" to="-320455187#3"/>
    <trip id="veh183" type="veh_passenger" depart="425.26" departLane="best" from="-293019678#7" to="1022073987"/>
    <trip id="veh184" type="veh_passenger" depart="427.58" departLane="best" from="-372290092#0" to="-313647228#0"/>
    <trip id="veh185" type="veh_passenger" depart="429.90" departLane="best" departSpeed="max" from="-11804742" to="1022429033#0"/>
    <trip id="veh186" type="veh_passenger" depart="432.23" departLane="best" from="625479008#0" to="24771086#5"/>
    <trip id="veh187" type="veh_passenger" depart="434.55" departLane="best" from="372290092#1" to="11840126"/>
    <trip id="veh188" type="veh_passenger" depart="436.88" departLane="best" departSpeed="max" from="-293019678#12" to="11747482"/>
    <trip id="veh189" type="veh_passenger" depart="439.20" departLane="best" from="-1022073976" to="-311523320"/>
    <trip id="veh190" type="veh_passenger" depart="441.52" departLane="best" from="-625851681#2" to="11824492#2"/>
    <trip id="veh191" type="veh_passenger" depart="443.85" departLane="best" from="11838419" to="11690551#6"/>
    <trip id="veh192" type="veh_passenger" depart="446.17" departLane="best" departSpeed="max" from="-625866875#1" to="-28491261#0"/>
    <trip id="veh193" type="veh_passenger" depart="448.50" departLane="best" from="1022073976" to="612984138#0"/>
    <trip id="veh194" type="veh_passenger" depart="450.82" departLane="best" departSpeed="max" from="294294299#0" to="-11957351#1"/>
    <trip id="veh195" type="veh_passenger" depart="453.14" departLane="best" from="-11729090#1" to="11732390"/>
    <trip id="veh196" type="veh_passenger" depart="455.47" departLane="best" departSpeed="max" from="11831739#0" to="-494284371#3"/>
    <trip id="veh197" type="veh_passenger" depart="457.79" departLane="best" from="294921088#0" to="293019678#7"/>
    <trip id="veh198" type="veh_passenger" depart="460.11" departLane="best" departSpeed="max" from="11949221#0" to="-292851770#0"/>
    <trip id="veh199" type="veh_passenger" depart="462.44" departLane="best" departSpeed="max" from="-11949920" to="-1091377105#3"/>
    <trip id="veh200" type="veh_passenger" depart="464.76" departLane="best" departSpeed="max" from="-255367654" to="11694981#0"/>
    <trip id="veh201" type="veh_passenger" depart="467.09" departLane="best" departSpeed="max" from="30677815#0" to="-11729090#0"/>
    <trip id="veh202" type="veh_passenger" depart="469.41" departLane="best" from="-54500407#2" to="11948124"/>
    <trip id="veh203" type="veh_passenger" depart="471.73" departLane="best" from="1091377105#2" to="-294294286"/>
    <trip id="veh204" type="veh_passenger" depart="474.06" departLane="best" from="11839861#0" to="-1022429024#2"/>
    <trip id="veh205" type="veh_passenger" depart="476.38" departLane="best" from="28727096#0" to="293149229#2"/>
    <trip id="veh206" type="veh_passenger" depart="478.71" departLane="best" from="-11851716#3" to="625866891#2"/>
    <trip id="veh207" type="veh_passenger" depart="481.03" departLane="best" departSpeed="max" from="11694786" to="-11695329#0"/>
    <trip id="veh208" type="veh_passenger" depart="483.35" departLane="best" departSpeed="max" from="-888078548" to="294921094#2"/>
    <trip id="veh209" type="veh_passenger" depart="485.68" departLane="best" from="11947670#0" to="911068792"/>
    <trip id="veh210" type="veh_passenger" depart="488.00" departLane="best" departSpeed="max" from="11807808" to="625866891#2"/>
    <trip id="veh211" type="veh_passenger" depart="490.32" departLane="best" from="344435198#0" to="11839510#0"/>
    <trip id="veh212" type="veh_passenger" depart="492.65" departLane="best" departSpeed="max" from="24850629" to="11729757"/>
    <trip id="veh213" type="veh_passenger" depart="494.97" departLane="best" from="355812455#0" to="292851770#13"/>
    <trip id="veh215" type="veh_passenger" depart="499.62" departLane="best" departSpeed="max" from="-25655759#1" to="11948308"/>
    <trip id="veh216" type="veh_passenger" depart="501.94" departLane="best" from="293019680#0" to="11734056"/>
    <trip id="veh217" type="veh_passenger" depart="504.27" departLane="best" from="11826990#2" to="-302256387#1"/>
    <trip id="veh218" type="veh_passenger" depart="506.59" departLane="best" from="-11712346#1" to="-30678697#1"/>
    <trip id="veh219" type="veh_passenger" depart="508.91" departLane="best" from="-28727096#0" to="-335842213"/>
    <trip id="veh220" type="veh_passenger" depart="511.24" departLane="best" from="11720583" to="-11837579#2"/>
    <trip id="veh221" type="veh_passenger" depart="513.56" departLane="best" from="-24771086#8" to="255367654"/>
    <trip id="veh222" type="veh_passenger" depart="515.89" departLane="best" departSpeed="max" from="138548786" to="-11712346#1"/>
    <trip id="veh223" type="veh_passenger" depart="518.21" departLane="best" departSpeed="max" from="-465717534" to="11739047"/>
    <trip id="veh224" type="veh_passenger" depart="520.53" departLane="best" from="-54964356#1" to="-265895120#1"/>
    <trip id="veh225" type="veh_passenger" depart="522.86" departLane="best" from="-612984138#2" to="625361998#0"/>
    <trip id="veh226" type="veh_passenger" depart="525.18" departLane="best" from="11754703" to="255367654"/>
    <trip id="veh227" type="veh_passenger" depart="527.51" departLane="best" departSpeed="max" from="30678697#0" to="293149229#0"/>
    <trip id="veh228" type="veh_passenger" depart="529.83" departLane="best" departSpeed="max" from="-335532205" to="-1022429024#2"/>
    <trip id="veh230" type="veh_passenger" depart="534.48" departLane="best" departSpeed="max" from="30677815#0" to="625866891#2"/>
    <trip id="veh231" type="veh_passenger" depart="536.80" departLane="best" from="-612984138#0" to="293019678#0"/>
    <trip id="veh232" type="veh_passenger" depart="539.12" departLane="best" from="11722219#2" to="11834237#1"/>
    <trip id="veh233" type="veh_passenger" depart="541.45" departLane="best" from="-132161471#2" to="-28727096#0"/>
    <trip id="veh234" type="veh_passenger" depart="543.77" departLane="best" from="-295777416#2" to="24771086#9"/>
    <trip id="veh235" type="veh_passenger" depart="546.10" departLane="best" from="-392332379" to="-11952903#1"/>
    <trip id="veh236" type="veh_passenger" depart="548.42" departLane="best" from="-926031003" to="-11826990#2"/>
    <trip id="veh237" type="veh_passenger" depart="550.74" departLane="best" from="-1091377105#1" to="11949920"/>